# DDEC6 charges by PACMAN v1.1 (https://github.com/mtap-research/PACMAN-charge/)
data_2008[ZnSi][nan]3[ASR]2
_chemical_formula_sum              "Zn8 Si4 H64 C112 O32"
_cell_length_a       12.4868
_cell_length_b       13.0255
_cell_length_c       23.7555
_cell_angle_alpha    90
_cell_angle_beta     90
_cell_angle_gamma    90

_symmetry_space_group_name_H-M    "P 1"
_symmetry_Int_Tables_number       1

loop_
  _symmetry_equiv_pos_as_xyz
  'x, y, z'

loop_
  _atom_site_type_symbol
  _atom_site_label
  _atom_site_symmetry_multiplicity
  _atom_site_fract_x
  _atom_site_fract_y
  _atom_site_fract_z
  _atom_site_occupancy
  _atom_site_charge
Zn  Zn1       1.0  0.24070  0.75000  0.75000  1.0000 0.9640916121
Zn  Zn2       1.0  0.25930  0.25000  0.75000  1.0000 0.9640916121
Zn  Zn3       1.0  0.75930  0.25000  0.25000  1.0000 0.9640916121
Zn  Zn4       1.0  0.74070  0.75000  0.25000  1.0000 0.9640916121
Zn  Zn5       1.0  0.25000  0.50000  0.79852  1.0000 0.9192132485
Zn  Zn6       1.0  0.25000  0.00000  0.70148  1.0000 0.9192132485
Zn  Zn7       1.0  0.75000  0.50000  0.20148  1.0000 0.9192132485
Zn  Zn8       1.0  0.75000  0.00000  0.29852  1.0000 0.9192132485
Si  Si1       1.0  0.25000  0.00000  0.03842  1.0000 0.6509340238
Si  Si2       1.0  0.25000  0.50000  0.46158  1.0000 0.6509340238
Si  Si3       1.0  0.75000  0.00000  0.96158  1.0000 0.6509340238
Si  Si4       1.0  0.75000  0.50000  0.53842  1.0000 0.6509340238
H   H1        1.0  0.38650  0.81010  0.02600  1.0000 0.110731264
H   H2        1.0  0.11350  0.18990  0.02600  1.0000 0.110731264
H   H3        1.0  0.11350  0.31010  0.47400  1.0000 0.110731264
H   H4        1.0  0.38650  0.68990  0.47400  1.0000 0.110731264
H   H5        1.0  0.61350  0.18990  0.97400  1.0000 0.110731264
H   H6        1.0  0.88650  0.81010  0.97400  1.0000 0.110731264
H   H7        1.0  0.88650  0.68990  0.52600  1.0000 0.110731264
H   H8        1.0  0.61350  0.31010  0.52600  1.0000 0.110731264
H   H9        1.0  0.39410  0.67690  0.96080  1.0000 0.1179808315
H   H10       1.0  0.10590  0.32310  0.96080  1.0000 0.1179808315
H   H11       1.0  0.10590  0.17690  0.53920  1.0000 0.1179808315
H   H12       1.0  0.39410  0.82310  0.53920  1.0000 0.1179808315
H   H13       1.0  0.60590  0.32310  0.03920  1.0000 0.1179808315
H   H14       1.0  0.89410  0.67690  0.03920  1.0000 0.1179808315
H   H15       1.0  0.89410  0.82310  0.46080  1.0000 0.1179808315
H   H16       1.0  0.60590  0.17690  0.46080  1.0000 0.1179808315
H   H17       1.0  0.14340  0.80000  0.87580  1.0000 0.1179808315
H   H18       1.0  0.35660  0.20000  0.87580  1.0000 0.1179808315
H   H19       1.0  0.35660  0.30000  0.62420  1.0000 0.1179808315
H   H20       1.0  0.14340  0.70000  0.62420  1.0000 0.1179808315
H   H21       1.0  0.85660  0.20000  0.12420  1.0000 0.1179808315
H   H22       1.0  0.64340  0.80000  0.12420  1.0000 0.1179808315
H   H23       1.0  0.64340  0.70000  0.37580  1.0000 0.1179808315
H   H24       1.0  0.85660  0.30000  0.37580  1.0000 0.1179808315
H   H25       1.0  0.13420  0.93120  0.94230  1.0000 0.1179808315
H   H26       1.0  0.36580  0.06880  0.94230  1.0000 0.1179808315
H   H27       1.0  0.36580  0.43120  0.55770  1.0000 0.1179808315
H   H28       1.0  0.13420  0.56880  0.55770  1.0000 0.1179808315
H   H29       1.0  0.86580  0.06880  0.05770  1.0000 0.1179808315
H   H30       1.0  0.63420  0.93120  0.05770  1.0000 0.1179808315
H   H31       1.0  0.63420  0.56880  0.44230  1.0000 0.1179808315
H   H32       1.0  0.86580  0.43120  0.44230  1.0000 0.1179808315
H   H33       1.0  0.36700  0.87750  0.12300  1.0000 0.110731264
H   H34       1.0  0.13300  0.12250  0.12300  1.0000 0.110731264
H   H35       1.0  0.13300  0.37750  0.37700  1.0000 0.110731264
H   H36       1.0  0.36700  0.62250  0.37700  1.0000 0.110731264
H   H37       1.0  0.63300  0.12250  0.87700  1.0000 0.110731264
H   H38       1.0  0.86700  0.87750  0.87700  1.0000 0.110731264
H   H39       1.0  0.86700  0.62250  0.62300  1.0000 0.110731264
H   H40       1.0  0.63300  0.37750  0.62300  1.0000 0.110731264
H   H41       1.0  0.50010  0.90890  0.18910  1.0000 0.1179808315
H   H42       1.0  0.99990  0.09110  0.18910  1.0000 0.1179808315
H   H43       1.0  0.99990  0.40890  0.31090  1.0000 0.1179808315
H   H44       1.0  0.50010  0.59110  0.31090  1.0000 0.1179808315
H   H45       1.0  0.49990  0.09110  0.81090  1.0000 0.1179808315
H   H46       1.0  0.00010  0.90890  0.81090  1.0000 0.1179808315
H   H47       1.0  0.00010  0.59110  0.68910  1.0000 0.1179808315
H   H48       1.0  0.49990  0.40890  0.68910  1.0000 0.1179808315
H   H49       1.0  0.53230  0.19800  0.12970  1.0000 0.1179808315
H   H50       1.0  0.96770  0.80200  0.12970  1.0000 0.1179808315
H   H51       1.0  0.96770  0.69800  0.37030  1.0000 0.1179808315
H   H52       1.0  0.53230  0.30200  0.37030  1.0000 0.1179808315
H   H53       1.0  0.46770  0.80200  0.87030  1.0000 0.1179808315
H   H54       1.0  0.03230  0.19800  0.87030  1.0000 0.1179808315
H   H55       1.0  0.03230  0.30200  0.62970  1.0000 0.1179808315
H   H56       1.0  0.46770  0.69800  0.62970  1.0000 0.1179808315
H   H57       1.0  0.39970  0.16630  0.06310  1.0000 0.110731264
H   H58       1.0  0.10030  0.83370  0.06310  1.0000 0.110731264
H   H59       1.0  0.10030  0.66630  0.43690  1.0000 0.110731264
H   H60       1.0  0.39970  0.33370  0.43690  1.0000 0.110731264
H   H61       1.0  0.60030  0.83370  0.93690  1.0000 0.110731264
H   H62       1.0  0.89970  0.16630  0.93690  1.0000 0.110731264
H   H63       1.0  0.89970  0.33370  0.56310  1.0000 0.110731264
H   H64       1.0  0.60030  0.66630  0.56310  1.0000 0.110731264
C   C1        1.0  0.26100  0.88640  0.99050  1.0000 -0.2197897285
C   C2        1.0  0.23900  0.11360  0.99050  1.0000 -0.2197897285
C   C3        1.0  0.23900  0.38640  0.50950  1.0000 -0.2197897285
C   C4        1.0  0.26100  0.61360  0.50950  1.0000 -0.2197897285
C   C5        1.0  0.73900  0.11360  0.00950  1.0000 -0.2197897285
C   C6        1.0  0.76100  0.88640  0.00950  1.0000 -0.2197897285
C   C7        1.0  0.76100  0.61360  0.49050  1.0000 -0.2197897285
C   C8        1.0  0.73900  0.38640  0.49050  1.0000 -0.2197897285
C   C9        1.0  0.33720  0.80870  0.99549  1.0000 -0.0881298568
C   C10       1.0  0.16280  0.19130  0.99549  1.0000 -0.0881298568
C   C11       1.0  0.16280  0.30870  0.50451  1.0000 -0.0881298568
C   C12       1.0  0.33720  0.69130  0.50451  1.0000 -0.0881298568
C   C13       1.0  0.66280  0.19130  0.00451  1.0000 -0.0881298568
C   C14       1.0  0.83720  0.80870  0.00451  1.0000 -0.0881298568
C   C15       1.0  0.83720  0.69130  0.49549  1.0000 -0.0881298568
C   C16       1.0  0.66280  0.30870  0.49549  1.0000 -0.0881298568
C   C17       1.0  0.34210  0.72960  0.95660  1.0000 -0.0992063824
C   C18       1.0  0.15790  0.27040  0.95660  1.0000 -0.0992063824
C   C19       1.0  0.15790  0.22960  0.54340  1.0000 -0.0992063824
C   C20       1.0  0.34210  0.77040  0.54340  1.0000 -0.0992063824
C   C21       1.0  0.65790  0.27040  0.04340  1.0000 -0.0992063824
C   C22       1.0  0.84210  0.72960  0.04340  1.0000 -0.0992063824
C   C23       1.0  0.84210  0.77040  0.45660  1.0000 -0.0992063824
C   C24       1.0  0.65790  0.22960  0.45660  1.0000 -0.0992063824
C   C25       1.0  0.27090  0.72680  0.91129  1.0000 -0.0098764718
C   C26       1.0  0.22910  0.27320  0.91129  1.0000 -0.0098764718
C   C27       1.0  0.22910  0.22680  0.58871  1.0000 -0.0098764718
C   C28       1.0  0.27090  0.77320  0.58871  1.0000 -0.0098764718
C   C29       1.0  0.72910  0.27320  0.08871  1.0000 -0.0098764718
C   C30       1.0  0.77090  0.72680  0.08871  1.0000 -0.0098764718
C   C31       1.0  0.77090  0.77320  0.41129  1.0000 -0.0098764718
C   C32       1.0  0.72910  0.22680  0.41129  1.0000 -0.0098764718
C   C33       1.0  0.19300  0.80200  0.90609  1.0000 -0.0992063824
C   C34       1.0  0.30700  0.19800  0.90609  1.0000 -0.0992063824
C   C35       1.0  0.30700  0.30200  0.59391  1.0000 -0.0992063824
C   C36       1.0  0.19300  0.69800  0.59391  1.0000 -0.0992063824
C   C37       1.0  0.80700  0.19800  0.09391  1.0000 -0.0992063824
C   C38       1.0  0.69300  0.80200  0.09391  1.0000 -0.0992063824
C   C39       1.0  0.69300  0.69800  0.40609  1.0000 -0.0992063824
C   C40       1.0  0.80700  0.30200  0.40609  1.0000 -0.0992063824
C   C41       1.0  0.18830  0.88030  0.94568  1.0000 -0.0881298568
C   C42       1.0  0.31170  0.11970  0.94568  1.0000 -0.0881298568
C   C43       1.0  0.31170  0.38030  0.55432  1.0000 -0.0881298568
C   C44       1.0  0.18830  0.61970  0.55432  1.0000 -0.0881298568
C   C45       1.0  0.81170  0.11970  0.05432  1.0000 -0.0881298568
C   C46       1.0  0.68830  0.88030  0.05432  1.0000 -0.0881298568
C   C47       1.0  0.68830  0.61970  0.44568  1.0000 -0.0881298568
C   C48       1.0  0.81170  0.38030  0.44568  1.0000 -0.0881298568
C   C49       1.0  0.28090  0.64440  0.86812  1.0000 0.5852202382
C   C50       1.0  0.21910  0.35560  0.86812  1.0000 0.5852202382
C   C51       1.0  0.21910  0.14440  0.63188  1.0000 0.5852202382
C   C52       1.0  0.28090  0.85560  0.63188  1.0000 0.5852202382
C   C53       1.0  0.71910  0.35560  0.13188  1.0000 0.5852202382
C   C54       1.0  0.78090  0.64440  0.13188  1.0000 0.5852202382
C   C55       1.0  0.78090  0.85560  0.36812  1.0000 0.5852202382
C   C56       1.0  0.71910  0.14440  0.36812  1.0000 0.5852202382
C   C57       1.0  0.36760  0.01880  0.08606  1.0000 -0.2197897285
C   C58       1.0  0.13240  0.98120  0.08606  1.0000 -0.2197897285
C   C59       1.0  0.13240  0.51880  0.41394  1.0000 -0.2197897285
C   C60       1.0  0.36760  0.48120  0.41394  1.0000 -0.2197897285
C   C61       1.0  0.63240  0.98120  0.91394  1.0000 -0.2197897285
C   C62       1.0  0.86760  0.01880  0.91394  1.0000 -0.2197897285
C   C63       1.0  0.86760  0.48120  0.58606  1.0000 -0.2197897285
C   C64       1.0  0.63240  0.51880  0.58606  1.0000 -0.2197897285
C   C65       1.0  0.40010  0.94310  0.12422  1.0000 -0.0881298568
C   C66       1.0  0.09990  0.05690  0.12422  1.0000 -0.0881298568
C   C67       1.0  0.09990  0.44310  0.37578  1.0000 -0.0881298568
C   C68       1.0  0.40010  0.55690  0.37578  1.0000 -0.0881298568
C   C69       1.0  0.59990  0.05690  0.87578  1.0000 -0.0881298568
C   C70       1.0  0.90010  0.94310  0.87578  1.0000 -0.0881298568
C   C71       1.0  0.90010  0.55690  0.62422  1.0000 -0.0881298568
C   C72       1.0  0.59990  0.44310  0.62422  1.0000 -0.0881298568
C   C73       1.0  0.47930  0.96170  0.16366  1.0000 -0.0992063824
C   C74       1.0  0.02070  0.03830  0.16366  1.0000 -0.0992063824
C   C75       1.0  0.02070  0.46170  0.33634  1.0000 -0.0992063824
C   C76       1.0  0.47930  0.53830  0.33634  1.0000 -0.0992063824
C   C77       1.0  0.52070  0.03830  0.83634  1.0000 -0.0992063824
C   C78       1.0  0.97930  0.96170  0.83634  1.0000 -0.0992063824
C   C79       1.0  0.97930  0.53830  0.66366  1.0000 -0.0992063824
C   C80       1.0  0.52070  0.46170  0.66366  1.0000 -0.0992063824
C   C81       1.0  0.52870  0.05710  0.16618  1.0000 -0.0160602095
C   C82       1.0  0.97130  0.94290  0.16618  1.0000 -0.0160602095
C   C83       1.0  0.97130  0.55710  0.33382  1.0000 -0.0160602095
C   C84       1.0  0.52870  0.44290  0.33382  1.0000 -0.0160602095
C   C85       1.0  0.47130  0.94290  0.83382  1.0000 -0.0160602095
C   C86       1.0  0.02870  0.05710  0.83382  1.0000 -0.0160602095
C   C87       1.0  0.02870  0.44290  0.66618  1.0000 -0.0160602095
C   C88       1.0  0.47130  0.55710  0.66618  1.0000 -0.0160602095
C   C89       1.0  0.49850  0.13270  0.12850  1.0000 -0.0881298568
C   C90       1.0  0.00150  0.86730  0.12850  1.0000 -0.0881298568
C   C91       1.0  0.00150  0.63270  0.37150  1.0000 -0.0881298568
C   C92       1.0  0.49850  0.36730  0.37150  1.0000 -0.0881298568
C   C93       1.0  0.50150  0.86730  0.87150  1.0000 -0.0881298568
C   C94       1.0  0.99850  0.13270  0.87150  1.0000 -0.0881298568
C   C95       1.0  0.99850  0.36730  0.62850  1.0000 -0.0881298568
C   C96       1.0  0.50150  0.63270  0.62850  1.0000 -0.0881298568
C   C97       1.0  0.41920  0.11370  0.08886  1.0000 -0.0822136346
C   C98       1.0  0.08080  0.88630  0.08886  1.0000 -0.0822136346
C   C99       1.0  0.08080  0.61370  0.41114  1.0000 -0.0822136346
C   C100      1.0  0.41920  0.38630  0.41114  1.0000 -0.0822136346
C   C101      1.0  0.58080  0.88630  0.91114  1.0000 -0.0822136346
C   C102      1.0  0.91920  0.11370  0.91114  1.0000 -0.0822136346
C   C103      1.0  0.91920  0.38630  0.58886  1.0000 -0.0822136346
C   C104      1.0  0.58080  0.61370  0.58886  1.0000 -0.0822136346
C   C105      1.0  0.61380  0.07790  0.20955  1.0000 0.6020519864
C   C106      1.0  0.88620  0.92210  0.20955  1.0000 0.6020519864
C   C107      1.0  0.88620  0.57790  0.29045  1.0000 0.6020519864
C   C108      1.0  0.61380  0.42210  0.29045  1.0000 0.6020519864
C   C109      1.0  0.38620  0.92210  0.79045  1.0000 0.6020519864
C   C110      1.0  0.11380  0.07790  0.79045  1.0000 0.6020519864
C   C111      1.0  0.11380  0.42210  0.70955  1.0000 0.6020519864
C   C112      1.0  0.38620  0.57790  0.70955  1.0000 0.6020519864
O   O1        1.0  0.22220  0.64939  0.82341  1.0000 -0.5901701916
O   O2        1.0  0.27780  0.35061  0.82341  1.0000 -0.5901701916
O   O3        1.0  0.27780  0.14939  0.67659  1.0000 -0.5901701916
O   O4        1.0  0.22220  0.85061  0.67659  1.0000 -0.5901701916
O   O5        1.0  0.77780  0.35061  0.17659  1.0000 -0.5901701916
O   O6        1.0  0.72220  0.64939  0.17659  1.0000 -0.5901701916
O   O7        1.0  0.72220  0.85061  0.32341  1.0000 -0.5901701916
O   O8        1.0  0.77780  0.14939  0.32341  1.0000 -0.5901701916
O   O9        1.0  0.34230  0.57030  0.87567  1.0000 -0.5008723903
O   O10       1.0  0.15770  0.42970  0.87567  1.0000 -0.5008723903
O   O11       1.0  0.15770  0.07030  0.62433  1.0000 -0.5008723903
O   O12       1.0  0.34230  0.92970  0.62433  1.0000 -0.5008723903
O   O13       1.0  0.65770  0.42970  0.12433  1.0000 -0.5008723903
O   O14       1.0  0.84230  0.57030  0.12433  1.0000 -0.5008723903
O   O15       1.0  0.84230  0.92970  0.37567  1.0000 -0.5008723903
O   O16       1.0  0.65770  0.07030  0.37567  1.0000 -0.5008723903
O   O17       1.0  0.66109  0.16292  0.20685  1.0000 -0.5519527662
O   O18       1.0  0.83891  0.83708  0.20685  1.0000 -0.5519527662
O   O19       1.0  0.83891  0.66292  0.29315  1.0000 -0.5519527662
O   O20       1.0  0.66109  0.33708  0.29315  1.0000 -0.5519527662
O   O21       1.0  0.33891  0.83708  0.79315  1.0000 -0.5519527662
O   O22       1.0  0.16109  0.16292  0.79315  1.0000 -0.5519527662
O   O23       1.0  0.16109  0.33708  0.70685  1.0000 -0.5519527662
O   O24       1.0  0.33891  0.66292  0.70685  1.0000 -0.5519527662
O   O25       1.0  0.62970  0.00861  0.24518  1.0000 -0.5356259215
O   O26       1.0  0.87030  0.99139  0.24518  1.0000 -0.5356259215
O   O27       1.0  0.87030  0.50861  0.25482  1.0000 -0.5356259215
O   O28       1.0  0.62970  0.49139  0.25482  1.0000 -0.5356259215
O   O29       1.0  0.37030  0.99139  0.75482  1.0000 -0.5356259215
O   O30       1.0  0.12970  0.00861  0.75482  1.0000 -0.5356259215
O   O31       1.0  0.12970  0.49139  0.74518  1.0000 -0.5356259215
O   O32       1.0  0.37030  0.50861  0.74518  1.0000 -0.5356259215
