# DDEC6 charges by PACMAN v1.1 (https://github.com/mtap-research/PACMAN-charge/)
data_2024[Zn][crb]3[ASR]23
_chemical_formula_sum              "Zn16 H96 C96 N64"
_cell_length_a       9.63356
_cell_length_b       24.0923
_cell_length_c       24.4097
_cell_angle_alpha    90
_cell_angle_beta     90
_cell_angle_gamma    90

_symmetry_space_group_name_H-M    "P 1"
_symmetry_Int_Tables_number       1

loop_
  _symmetry_equiv_pos_as_xyz
  'x, y, z'

loop_
  _atom_site_type_symbol
  _atom_site_label
  _atom_site_symmetry_multiplicity
  _atom_site_fract_x
  _atom_site_fract_y
  _atom_site_fract_z
  _atom_site_occupancy
  _atom_site_charge
Zn  Zn1       1.0  0.01228  0.17442  0.50141  1.0000 0.6135279898
Zn  Zn2       1.0  0.51228  0.32558  0.49859  1.0000 0.6135279898
Zn  Zn3       1.0  0.98772  0.67442  0.99859  1.0000 0.6135279898
Zn  Zn4       1.0  0.48772  0.82558  0.00141  1.0000 0.6135279898
Zn  Zn5       1.0  0.98772  0.82558  0.49859  1.0000 0.6135279898
Zn  Zn6       1.0  0.48772  0.67442  0.50141  1.0000 0.6135279898
Zn  Zn7       1.0  0.01228  0.32558  0.00141  1.0000 0.6135279898
Zn  Zn8       1.0  0.51228  0.17442  0.99859  1.0000 0.6135279898
Zn  Zn9       1.0  0.00268  0.00175  0.32394  1.0000 0.6135279898
Zn  Zn10      1.0  0.50268  0.49825  0.67606  1.0000 0.6135279898
Zn  Zn11      1.0  0.99732  0.50175  0.17606  1.0000 0.6135279898
Zn  Zn12      1.0  0.49732  0.99825  0.82394  1.0000 0.6135279898
Zn  Zn13      1.0  0.99732  0.99825  0.67606  1.0000 0.6135279898
Zn  Zn14      1.0  0.49732  0.50175  0.32394  1.0000 0.6135279898
Zn  Zn15      1.0  0.00268  0.49825  0.82394  1.0000 0.6135279898
Zn  Zn16      1.0  0.50268  0.00175  0.17606  1.0000 0.6135279898
H   H1        1.0  0.75520  0.33720  0.40880  1.0000 0.1009819158
H   H2        1.0  0.25520  0.16280  0.59120  1.0000 0.1009819158
H   H3        1.0  0.24480  0.83720  0.09120  1.0000 0.1009819158
H   H4        1.0  0.74480  0.66280  0.90880  1.0000 0.1009819158
H   H5        1.0  0.24480  0.66280  0.59120  1.0000 0.1009819158
H   H6        1.0  0.74480  0.83720  0.40880  1.0000 0.1009819158
H   H7        1.0  0.75520  0.16280  0.90880  1.0000 0.1009819158
H   H8        1.0  0.25520  0.33720  0.09120  1.0000 0.1009819158
H   H9        1.0  0.49030  0.94610  0.29380  1.0000 0.1009819158
H   H10       1.0  0.99030  0.55390  0.70620  1.0000 0.1009819158
H   H11       1.0  0.50970  0.44610  0.20620  1.0000 0.1009819158
H   H12       1.0  0.00970  0.05390  0.79380  1.0000 0.1009819158
H   H13       1.0  0.50970  0.05390  0.70620  1.0000 0.1009819158
H   H14       1.0  0.00970  0.44610  0.29380  1.0000 0.1009819158
H   H15       1.0  0.49030  0.55390  0.79380  1.0000 0.1009819158
H   H16       1.0  0.99030  0.94610  0.20620  1.0000 0.1009819158
H   H17       1.0  0.96240  0.05210  0.44420  1.0000 0.078170699
H   H18       1.0  0.46240  0.44790  0.55580  1.0000 0.078170699
H   H19       1.0  0.03760  0.55210  0.05580  1.0000 0.078170699
H   H20       1.0  0.53760  0.94790  0.94420  1.0000 0.078170699
H   H21       1.0  0.03760  0.94790  0.55580  1.0000 0.078170699
H   H22       1.0  0.53760  0.55210  0.44420  1.0000 0.078170699
H   H23       1.0  0.96240  0.44790  0.94420  1.0000 0.078170699
H   H24       1.0  0.46240  0.05210  0.05580  1.0000 0.078170699
H   H25       1.0  0.20400  0.81930  0.39800  1.0000 0.1009819158
H   H26       1.0  0.70400  0.68070  0.60200  1.0000 0.1009819158
H   H27       1.0  0.79600  0.31930  0.10200  1.0000 0.1009819158
H   H28       1.0  0.29600  0.18070  0.89800  1.0000 0.1009819158
H   H29       1.0  0.79600  0.18070  0.60200  1.0000 0.1009819158
H   H30       1.0  0.29600  0.31930  0.39800  1.0000 0.1009819158
H   H31       1.0  0.20400  0.68070  0.89800  1.0000 0.1009819158
H   H32       1.0  0.70400  0.81930  0.10200  1.0000 0.1009819158
H   H33       1.0  0.14100  0.12130  0.30480  1.0000 0.1009819158
H   H34       1.0  0.64100  0.37870  0.69520  1.0000 0.1009819158
H   H35       1.0  0.85900  0.62130  0.19520  1.0000 0.1009819158
H   H36       1.0  0.35900  0.87870  0.80480  1.0000 0.1009819158
H   H37       1.0  0.85900  0.87870  0.69520  1.0000 0.1009819158
H   H38       1.0  0.35900  0.62130  0.30480  1.0000 0.1009819158
H   H39       1.0  0.14100  0.37870  0.80480  1.0000 0.1009819158
H   H40       1.0  0.64100  0.12130  0.19520  1.0000 0.1009819158
H   H41       1.0  0.14600  0.19720  0.38960  1.0000 0.1009819158
H   H42       1.0  0.64600  0.30280  0.61040  1.0000 0.1009819158
H   H43       1.0  0.85400  0.69720  0.11040  1.0000 0.1009819158
H   H44       1.0  0.35400  0.80280  0.88960  1.0000 0.1009819158
H   H45       1.0  0.85400  0.80280  0.61040  1.0000 0.1009819158
H   H46       1.0  0.35400  0.69720  0.38960  1.0000 0.1009819158
H   H47       1.0  0.14600  0.30280  0.88960  1.0000 0.1009819158
H   H48       1.0  0.64600  0.19720  0.11040  1.0000 0.1009819158
H   H49       1.0  0.91970  0.94160  0.43960  1.0000 0.078170699
H   H50       1.0  0.41970  0.55840  0.56040  1.0000 0.078170699
H   H51       1.0  0.08030  0.44160  0.06040  1.0000 0.078170699
H   H52       1.0  0.58030  0.05840  0.93960  1.0000 0.078170699
H   H53       1.0  0.08030  0.05840  0.56040  1.0000 0.078170699
H   H54       1.0  0.58030  0.44160  0.43960  1.0000 0.078170699
H   H55       1.0  0.91970  0.55840  0.93960  1.0000 0.078170699
H   H56       1.0  0.41970  0.94160  0.06040  1.0000 0.078170699
H   H57       1.0  0.19800  0.89700  0.31820  1.0000 0.1067891521
H   H58       1.0  0.69800  0.60300  0.68180  1.0000 0.1067891521
H   H59       1.0  0.80200  0.39700  0.18180  1.0000 0.1067891521
H   H60       1.0  0.30200  0.10300  0.81820  1.0000 0.1067891521
H   H61       1.0  0.80200  0.10300  0.68180  1.0000 0.1067891521
H   H62       1.0  0.30200  0.39700  0.31820  1.0000 0.1067891521
H   H63       1.0  0.19800  0.60300  0.81820  1.0000 0.1067891521
H   H64       1.0  0.69800  0.89700  0.18180  1.0000 0.1067891521
H   H65       1.0  0.71350  0.22560  0.53810  1.0000 0.0529939187
H   H66       1.0  0.21350  0.27440  0.46190  1.0000 0.0529939187
H   H67       1.0  0.28650  0.72560  0.96190  1.0000 0.0529939187
H   H68       1.0  0.78650  0.77440  0.03810  1.0000 0.0529939187
H   H69       1.0  0.28650  0.77440  0.46190  1.0000 0.0529939187
H   H70       1.0  0.78650  0.72560  0.53810  1.0000 0.0529939187
H   H71       1.0  0.71350  0.27440  0.03810  1.0000 0.0529939187
H   H72       1.0  0.21350  0.22560  0.96190  1.0000 0.0529939187
H   H73       1.0  0.98540  0.27080  0.41180  1.0000 0.0912582082
H   H74       1.0  0.48540  0.22920  0.58820  1.0000 0.0912582082
H   H75       1.0  0.01460  0.77080  0.08820  1.0000 0.0912582082
H   H76       1.0  0.51460  0.72920  0.91180  1.0000 0.0912582082
H   H77       1.0  0.01460  0.72920  0.58820  1.0000 0.0912582082
H   H78       1.0  0.51460  0.77080  0.41180  1.0000 0.0912582082
H   H79       1.0  0.98540  0.22920  0.91180  1.0000 0.0912582082
H   H80       1.0  0.48540  0.27080  0.08820  1.0000 0.0912582082
H   H81       1.0  0.71660  0.94880  0.36310  1.0000 0.1009819158
H   H82       1.0  0.21660  0.55120  0.63690  1.0000 0.1009819158
H   H83       1.0  0.28340  0.44880  0.13690  1.0000 0.1009819158
H   H84       1.0  0.78340  0.05120  0.86310  1.0000 0.1009819158
H   H85       1.0  0.28340  0.05120  0.63690  1.0000 0.1009819158
H   H86       1.0  0.78340  0.44880  0.36310  1.0000 0.1009819158
H   H87       1.0  0.71660  0.55120  0.86310  1.0000 0.1009819158
H   H88       1.0  0.21660  0.94880  0.13690  1.0000 0.1009819158
H   H89       1.0  0.80680  0.03790  0.22180  1.0000 0.078170699
H   H90       1.0  0.30680  0.46210  0.77820  1.0000 0.078170699
H   H91       1.0  0.19320  0.53790  0.27820  1.0000 0.078170699
H   H92       1.0  0.69320  0.96210  0.72180  1.0000 0.078170699
H   H93       1.0  0.19320  0.96210  0.77820  1.0000 0.078170699
H   H94       1.0  0.69320  0.53790  0.22180  1.0000 0.078170699
H   H95       1.0  0.80680  0.46210  0.72180  1.0000 0.078170699
H   H96       1.0  0.30680  0.03790  0.27820  1.0000 0.078170699
C   C1        1.0  0.78044  0.30481  0.43654  1.0000 -0.062783835
C   C2        1.0  0.28044  0.19519  0.56346  1.0000 -0.062783835
C   C3        1.0  0.21956  0.80481  0.06346  1.0000 -0.062783835
C   C4        1.0  0.71956  0.69519  0.93654  1.0000 -0.062783835
C   C5        1.0  0.21956  0.69519  0.56346  1.0000 -0.062783835
C   C6        1.0  0.71956  0.80481  0.43654  1.0000 -0.062783835
C   C7        1.0  0.78044  0.19519  0.93654  1.0000 -0.062783835
C   C8        1.0  0.28044  0.30481  0.06346  1.0000 -0.062783835
C   C9        1.0  0.58854  0.96601  0.28955  1.0000 -0.0706992495
C   C10       1.0  0.08854  0.53399  0.71045  1.0000 -0.0706992495
C   C11       1.0  0.41146  0.46601  0.21045  1.0000 -0.0706992495
C   C12       1.0  0.91146  0.03399  0.78955  1.0000 -0.0706992495
C   C13       1.0  0.41146  0.03399  0.71045  1.0000 -0.0706992495
C   C14       1.0  0.91146  0.46601  0.28955  1.0000 -0.0706992495
C   C15       1.0  0.58854  0.53399  0.78955  1.0000 -0.0706992495
C   C16       1.0  0.08854  0.96601  0.21045  1.0000 -0.0706992495
C   C17       1.0  0.01494  0.08042  0.41801  1.0000 0.1295565952
C   C18       1.0  0.51494  0.41958  0.58199  1.0000 0.1295565952
C   C19       1.0  0.98506  0.58042  0.08199  1.0000 0.1295565952
C   C20       1.0  0.48506  0.91958  0.91801  1.0000 0.1295565952
C   C21       1.0  0.98506  0.91958  0.58199  1.0000 0.1295565952
C   C22       1.0  0.48506  0.58042  0.41801  1.0000 0.1295565952
C   C23       1.0  0.01494  0.41958  0.91801  1.0000 0.1295565952
C   C24       1.0  0.51494  0.08042  0.08199  1.0000 0.1295565952
C   C25       1.0  0.14330  0.85561  0.39557  1.0000 -0.0706992495
C   C26       1.0  0.64330  0.64439  0.60443  1.0000 -0.0706992495
C   C27       1.0  0.85670  0.35561  0.10443  1.0000 -0.0706992495
C   C28       1.0  0.35670  0.14439  0.89557  1.0000 -0.0706992495
C   C29       1.0  0.85670  0.14439  0.60443  1.0000 -0.0706992495
C   C30       1.0  0.35670  0.35561  0.39557  1.0000 -0.0706992495
C   C31       1.0  0.14330  0.64439  0.89557  1.0000 -0.0706992495
C   C32       1.0  0.64330  0.85561  0.10443  1.0000 -0.0706992495
C   C33       1.0  0.10543  0.11765  0.34609  1.0000 -0.0706992495
C   C34       1.0  0.60543  0.38235  0.65391  1.0000 -0.0706992495
C   C35       1.0  0.89457  0.61765  0.15391  1.0000 -0.0706992495
C   C36       1.0  0.39457  0.88235  0.84609  1.0000 -0.0706992495
C   C37       1.0  0.89457  0.88235  0.65391  1.0000 -0.0706992495
C   C38       1.0  0.39457  0.61765  0.34609  1.0000 -0.0706992495
C   C39       1.0  0.10543  0.38235  0.84609  1.0000 -0.0706992495
C   C40       1.0  0.60543  0.11765  0.15391  1.0000 -0.0706992495
C   C41       1.0  0.10922  0.15532  0.38791  1.0000 -0.062783835
C   C42       1.0  0.60922  0.34468  0.61209  1.0000 -0.062783835
C   C43       1.0  0.89078  0.65532  0.11209  1.0000 -0.062783835
C   C44       1.0  0.39078  0.84468  0.88791  1.0000 -0.062783835
C   C45       1.0  0.89078  0.84468  0.61209  1.0000 -0.062783835
C   C46       1.0  0.39078  0.65532  0.38791  1.0000 -0.062783835
C   C47       1.0  0.10922  0.34468  0.88791  1.0000 -0.062783835
C   C48       1.0  0.60922  0.15532  0.11209  1.0000 -0.062783835
C   C49       1.0  0.99547  0.91857  0.41784  1.0000 0.1161231053
C   C50       1.0  0.49547  0.58143  0.58216  1.0000 0.1161231053
C   C51       1.0  0.00453  0.41857  0.08216  1.0000 0.1161231053
C   C52       1.0  0.50453  0.08143  0.91784  1.0000 0.1161231053
C   C53       1.0  0.00453  0.08143  0.58216  1.0000 0.1161231053
C   C54       1.0  0.50453  0.41857  0.41784  1.0000 0.1161231053
C   C55       1.0  0.99547  0.58143  0.91784  1.0000 0.1161231053
C   C56       1.0  0.49547  0.91857  0.08216  1.0000 0.1161231053
C   C57       1.0  0.14191  0.89520  0.35536  1.0000 -0.062783835
C   C58       1.0  0.64191  0.60480  0.64464  1.0000 -0.062783835
C   C59       1.0  0.85809  0.39520  0.14464  1.0000 -0.062783835
C   C60       1.0  0.35809  0.10480  0.85536  1.0000 -0.062783835
C   C61       1.0  0.85809  0.10480  0.64464  1.0000 -0.062783835
C   C62       1.0  0.35809  0.39520  0.35536  1.0000 -0.062783835
C   C63       1.0  0.14191  0.60480  0.85536  1.0000 -0.062783835
C   C64       1.0  0.64191  0.89520  0.14464  1.0000 -0.062783835
C   C65       1.0  0.75584  0.24739  0.50263  1.0000 0.1439391178
C   C66       1.0  0.25584  0.25261  0.49737  1.0000 0.1439391178
C   C67       1.0  0.24416  0.74739  0.99737  1.0000 0.1439391178
C   C68       1.0  0.74416  0.75261  0.00263  1.0000 0.1439391178
C   C69       1.0  0.24416  0.75261  0.49737  1.0000 0.1439391178
C   C70       1.0  0.74416  0.74739  0.50263  1.0000 0.1439391178
C   C71       1.0  0.75584  0.25261  0.00263  1.0000 0.1439391178
C   C72       1.0  0.25584  0.24739  0.99737  1.0000 0.1439391178
C   C73       1.0  0.89493  0.27102  0.43824  1.0000 -0.062783835
C   C74       1.0  0.39493  0.22898  0.56176  1.0000 -0.062783835
C   C75       1.0  0.10507  0.77102  0.06176  1.0000 -0.062783835
C   C76       1.0  0.60507  0.72898  0.93824  1.0000 -0.062783835
C   C77       1.0  0.10507  0.72898  0.56176  1.0000 -0.062783835
C   C78       1.0  0.60507  0.77102  0.43824  1.0000 -0.062783835
C   C79       1.0  0.89493  0.22898  0.93824  1.0000 -0.062783835
C   C80       1.0  0.39493  0.27102  0.06176  1.0000 -0.062783835
C   C81       1.0  0.70159  0.96610  0.32350  1.0000 -0.0706992495
C   C82       1.0  0.20159  0.53390  0.67650  1.0000 -0.0706992495
C   C83       1.0  0.29841  0.46610  0.17650  1.0000 -0.0706992495
C   C84       1.0  0.79841  0.03390  0.82350  1.0000 -0.0706992495
C   C85       1.0  0.29841  0.03390  0.67650  1.0000 -0.0706992495
C   C86       1.0  0.79841  0.46610  0.32350  1.0000 -0.0706992495
C   C87       1.0  0.70159  0.53390  0.82350  1.0000 -0.0706992495
C   C88       1.0  0.20159  0.96610  0.17650  1.0000 -0.0706992495
C   C89       1.0  0.75241  0.01238  0.25078  1.0000 0.1295565952
C   C90       1.0  0.25241  0.48762  0.74922  1.0000 0.1295565952
C   C91       1.0  0.24759  0.51238  0.24922  1.0000 0.1295565952
C   C92       1.0  0.74759  0.98762  0.75078  1.0000 0.1295565952
C   C93       1.0  0.24759  0.98762  0.74922  1.0000 0.1295565952
C   C94       1.0  0.74759  0.51238  0.25078  1.0000 0.1295565952
C   C95       1.0  0.75241  0.48762  0.75078  1.0000 0.1295565952
C   C96       1.0  0.25241  0.01238  0.24922  1.0000 0.1295565952
N   N1        1.0  0.04544  0.06992  0.36560  1.0000 -0.2973237011
N   N2        1.0  0.54544  0.43008  0.63440  1.0000 -0.2973237011
N   N3        1.0  0.95456  0.56992  0.13440  1.0000 -0.2973237011
N   N4        1.0  0.45456  0.93008  0.86560  1.0000 -0.2973237011
N   N5        1.0  0.95456  0.93008  0.63440  1.0000 -0.2973237011
N   N6        1.0  0.45456  0.56992  0.36560  1.0000 -0.2973237011
N   N7        1.0  0.04544  0.43008  0.86560  1.0000 -0.2973237011
N   N8        1.0  0.54544  0.06992  0.13440  1.0000 -0.2973237011
N   N9        1.0  0.87846  0.23461  0.48070  1.0000 -0.2843185189
N   N10       1.0  0.37846  0.26539  0.51930  1.0000 -0.2843185189
N   N11       1.0  0.12154  0.73461  0.01930  1.0000 -0.2843185189
N   N12       1.0  0.62154  0.76539  0.98070  1.0000 -0.2843185189
N   N13       1.0  0.12154  0.76539  0.51930  1.0000 -0.2843185189
N   N14       1.0  0.62154  0.73461  0.48070  1.0000 -0.2843185189
N   N15       1.0  0.87846  0.26539  0.98070  1.0000 -0.2843185189
N   N16       1.0  0.37846  0.23461  0.01930  1.0000 -0.2843185189
N   N17       1.0  0.69238  0.28967  0.47778  1.0000 -0.2875566373
N   N18       1.0  0.19238  0.21033  0.52222  1.0000 -0.2875566373
N   N19       1.0  0.30762  0.78967  0.02222  1.0000 -0.2875566373
N   N20       1.0  0.80762  0.71033  0.97778  1.0000 -0.2875566373
N   N21       1.0  0.30762  0.71033  0.52222  1.0000 -0.2875566373
N   N22       1.0  0.80762  0.78967  0.47778  1.0000 -0.2875566373
N   N23       1.0  0.69238  0.21033  0.97778  1.0000 -0.2875566373
N   N24       1.0  0.19238  0.28967  0.02222  1.0000 -0.2875566373
N   N25       1.0  0.04722  0.93509  0.36969  1.0000 -0.2843185189
N   N26       1.0  0.54722  0.56491  0.63031  1.0000 -0.2843185189
N   N27       1.0  0.95278  0.43509  0.13031  1.0000 -0.2843185189
N   N28       1.0  0.45278  0.06491  0.86969  1.0000 -0.2843185189
N   N29       1.0  0.95278  0.06491  0.63031  1.0000 -0.2843185189
N   N30       1.0  0.45278  0.43509  0.36969  1.0000 -0.2843185189
N   N31       1.0  0.04722  0.56491  0.86969  1.0000 -0.2843185189
N   N32       1.0  0.54722  0.93509  0.13031  1.0000 -0.2843185189
N   N33       1.0  0.05138  0.13149  0.43331  1.0000 -0.2875566373
N   N34       1.0  0.55138  0.36851  0.56669  1.0000 -0.2875566373
N   N35       1.0  0.94862  0.63149  0.06669  1.0000 -0.2875566373
N   N36       1.0  0.44862  0.86851  0.93331  1.0000 -0.2875566373
N   N37       1.0  0.94862  0.86851  0.56669  1.0000 -0.2875566373
N   N38       1.0  0.44862  0.63149  0.43331  1.0000 -0.2875566373
N   N39       1.0  0.05138  0.36851  0.93331  1.0000 -0.2875566373
N   N40       1.0  0.55138  0.13149  0.06669  1.0000 -0.2875566373
N   N41       1.0  0.04937  0.87054  0.43519  1.0000 -0.2875566373
N   N42       1.0  0.54937  0.62946  0.56481  1.0000 -0.2875566373
N   N43       1.0  0.95063  0.37054  0.06481  1.0000 -0.2875566373
N   N44       1.0  0.45063  0.12946  0.93519  1.0000 -0.2875566373
N   N45       1.0  0.95063  0.12946  0.56481  1.0000 -0.2875566373
N   N46       1.0  0.45063  0.37054  0.43519  1.0000 -0.2875566373
N   N47       1.0  0.04937  0.62946  0.93519  1.0000 -0.2875566373
N   N48       1.0  0.54937  0.87054  0.06481  1.0000 -0.2875566373
N   N49       1.0  0.62165  0.99572  0.24322  1.0000 -0.2875566373
N   N50       1.0  0.12165  0.50428  0.75678  1.0000 -0.2875566373
N   N51       1.0  0.37835  0.49572  0.25678  1.0000 -0.2875566373
N   N52       1.0  0.87835  0.00428  0.74322  1.0000 -0.2875566373
N   N53       1.0  0.37835  0.00428  0.75678  1.0000 -0.2875566373
N   N54       1.0  0.87835  0.49572  0.24322  1.0000 -0.2875566373
N   N55       1.0  0.62165  0.50428  0.74322  1.0000 -0.2875566373
N   N56       1.0  0.12165  0.99572  0.25678  1.0000 -0.2875566373
N   N57       1.0  0.80573  0.99556  0.29852  1.0000 -0.2875566373
N   N58       1.0  0.30573  0.50444  0.70148  1.0000 -0.2875566373
N   N59       1.0  0.19427  0.49556  0.20148  1.0000 -0.2875566373
N   N60       1.0  0.69427  0.00444  0.79852  1.0000 -0.2875566373
N   N61       1.0  0.19427  0.00444  0.70148  1.0000 -0.2875566373
N   N62       1.0  0.69427  0.49556  0.29852  1.0000 -0.2875566373
N   N63       1.0  0.80573  0.50444  0.79852  1.0000 -0.2875566373
N   N64       1.0  0.30573  0.99556  0.20148  1.0000 -0.2875566373
