# DDEC6 charges by PACMAN v1.1 (https://github.com/mtap-research/PACMAN-charge/)
data_2024[Zn][crb]3[ASR]20
_chemical_formula_sum              "Zn16 H96 C96 N64"
_cell_length_a       9.63356
_cell_length_b       24.0923
_cell_length_c       24.4097
_cell_angle_alpha    90
_cell_angle_beta     90
_cell_angle_gamma    90

_symmetry_space_group_name_H-M    "P 1"
_symmetry_Int_Tables_number       1

loop_
  _symmetry_equiv_pos_as_xyz
  'x, y, z'

loop_
  _atom_site_type_symbol
  _atom_site_label
  _atom_site_symmetry_multiplicity
  _atom_site_fract_x
  _atom_site_fract_y
  _atom_site_fract_z
  _atom_site_occupancy
  _atom_site_charge
Zn  Zn1       1.0  0.01229  0.17442  0.50141  1.0000 0.616556881
Zn  Zn2       1.0  0.51229  0.32558  0.49859  1.0000 0.616556881
Zn  Zn3       1.0  0.98771  0.67442  0.99859  1.0000 0.616556881
Zn  Zn4       1.0  0.48771  0.82558  0.00141  1.0000 0.616556881
Zn  Zn5       1.0  0.98771  0.82558  0.49859  1.0000 0.616556881
Zn  Zn6       1.0  0.48771  0.67442  0.50141  1.0000 0.616556881
Zn  Zn7       1.0  0.01229  0.32558  0.00141  1.0000 0.616556881
Zn  Zn8       1.0  0.51229  0.17442  0.99859  1.0000 0.616556881
Zn  Zn9       1.0  0.00268  0.00175  0.32394  1.0000 0.616556881
Zn  Zn10      1.0  0.50268  0.49825  0.67606  1.0000 0.616556881
Zn  Zn11      1.0  0.99732  0.50175  0.17606  1.0000 0.616556881
Zn  Zn12      1.0  0.49732  0.99825  0.82394  1.0000 0.616556881
Zn  Zn13      1.0  0.99732  0.99825  0.67606  1.0000 0.616556881
Zn  Zn14      1.0  0.49732  0.50175  0.32394  1.0000 0.616556881
Zn  Zn15      1.0  0.00268  0.49825  0.82394  1.0000 0.616556881
Zn  Zn16      1.0  0.50268  0.00175  0.17606  1.0000 0.616556881
H   H1        1.0  0.75500  0.33770  0.40840  1.0000 0.1011109974
H   H2        1.0  0.25500  0.16230  0.59160  1.0000 0.1011109974
H   H3        1.0  0.24500  0.83770  0.09160  1.0000 0.1011109974
H   H4        1.0  0.74500  0.66230  0.90840  1.0000 0.1011109974
H   H5        1.0  0.24500  0.66230  0.59160  1.0000 0.1011109974
H   H6        1.0  0.74500  0.83770  0.40840  1.0000 0.1011109974
H   H7        1.0  0.75500  0.16230  0.90840  1.0000 0.1011109974
H   H8        1.0  0.25500  0.33770  0.09160  1.0000 0.1011109974
H   H9        1.0  0.48890  0.94550  0.29360  1.0000 0.1011109974
H   H10       1.0  0.98890  0.55450  0.70640  1.0000 0.1011109974
H   H11       1.0  0.51110  0.44550  0.20640  1.0000 0.1011109974
H   H12       1.0  0.01110  0.05450  0.79360  1.0000 0.1011109974
H   H13       1.0  0.51110  0.05450  0.70640  1.0000 0.1011109974
H   H14       1.0  0.01110  0.44550  0.29360  1.0000 0.1011109974
H   H15       1.0  0.48890  0.55450  0.79360  1.0000 0.1011109974
H   H16       1.0  0.98890  0.94550  0.20640  1.0000 0.1011109974
H   H17       1.0  0.96130  0.05160  0.44490  1.0000 0.0705508273
H   H18       1.0  0.46130  0.44840  0.55510  1.0000 0.0705508273
H   H19       1.0  0.03870  0.55160  0.05510  1.0000 0.0705508273
H   H20       1.0  0.53870  0.94840  0.94490  1.0000 0.0705508273
H   H21       1.0  0.03870  0.94840  0.55510  1.0000 0.0705508273
H   H22       1.0  0.53870  0.55160  0.44490  1.0000 0.0705508273
H   H23       1.0  0.96130  0.44840  0.94490  1.0000 0.0705508273
H   H24       1.0  0.46130  0.05160  0.05510  1.0000 0.0705508273
H   H25       1.0  0.20500  0.81900  0.39830  1.0000 0.1011109974
H   H26       1.0  0.70500  0.68100  0.60170  1.0000 0.1011109974
H   H27       1.0  0.79500  0.31900  0.10170  1.0000 0.1011109974
H   H28       1.0  0.29500  0.18100  0.89830  1.0000 0.1011109974
H   H29       1.0  0.79500  0.18100  0.60170  1.0000 0.1011109974
H   H30       1.0  0.29500  0.31900  0.39830  1.0000 0.1011109974
H   H31       1.0  0.20500  0.68100  0.89830  1.0000 0.1011109974
H   H32       1.0  0.70500  0.81900  0.10170  1.0000 0.1011109974
H   H33       1.0  0.14100  0.12140  0.30400  1.0000 0.1011109974
H   H34       1.0  0.64100  0.37860  0.69600  1.0000 0.1011109974
H   H35       1.0  0.85900  0.62140  0.19600  1.0000 0.1011109974
H   H36       1.0  0.35900  0.87860  0.80400  1.0000 0.1011109974
H   H37       1.0  0.85900  0.87860  0.69600  1.0000 0.1011109974
H   H38       1.0  0.35900  0.62140  0.30400  1.0000 0.1011109974
H   H39       1.0  0.14100  0.37860  0.80400  1.0000 0.1011109974
H   H40       1.0  0.64100  0.12140  0.19600  1.0000 0.1011109974
H   H41       1.0  0.14800  0.19760  0.38970  1.0000 0.0913027814
H   H42       1.0  0.64800  0.30240  0.61030  1.0000 0.0913027814
H   H43       1.0  0.85200  0.69760  0.11030  1.0000 0.0913027814
H   H44       1.0  0.35200  0.80240  0.88970  1.0000 0.0913027814
H   H45       1.0  0.85200  0.80240  0.61030  1.0000 0.0913027814
H   H46       1.0  0.35200  0.69760  0.38970  1.0000 0.0913027814
H   H47       1.0  0.14800  0.30240  0.88970  1.0000 0.0913027814
H   H48       1.0  0.64800  0.19760  0.11030  1.0000 0.0913027814
H   H49       1.0  0.91870  0.94220  0.44020  1.0000 0.0705508273
H   H50       1.0  0.41870  0.55780  0.55980  1.0000 0.0705508273
H   H51       1.0  0.08130  0.44220  0.05980  1.0000 0.0705508273
H   H52       1.0  0.58130  0.05780  0.94020  1.0000 0.0705508273
H   H53       1.0  0.08130  0.05780  0.55980  1.0000 0.0705508273
H   H54       1.0  0.58130  0.44220  0.44020  1.0000 0.0705508273
H   H55       1.0  0.91870  0.55780  0.94020  1.0000 0.0705508273
H   H56       1.0  0.41870  0.94220  0.05980  1.0000 0.0705508273
H   H57       1.0  0.19800  0.89700  0.31750  1.0000 0.1059995201
H   H58       1.0  0.69800  0.60300  0.68250  1.0000 0.1059995201
H   H59       1.0  0.80200  0.39700  0.18250  1.0000 0.1059995201
H   H60       1.0  0.30200  0.10300  0.81750  1.0000 0.1059995201
H   H61       1.0  0.80200  0.10300  0.68250  1.0000 0.1059995201
H   H62       1.0  0.30200  0.39700  0.31750  1.0000 0.1059995201
H   H63       1.0  0.19800  0.60300  0.81750  1.0000 0.1059995201
H   H64       1.0  0.69800  0.89700  0.18250  1.0000 0.1059995201
H   H65       1.0  0.71310  0.22550  0.53890  1.0000 0.0445704516
H   H66       1.0  0.21310  0.27450  0.46110  1.0000 0.0445704516
H   H67       1.0  0.28690  0.72550  0.96110  1.0000 0.0445704516
H   H68       1.0  0.78690  0.77450  0.03890  1.0000 0.0445704516
H   H69       1.0  0.28690  0.77450  0.46110  1.0000 0.0445704516
H   H70       1.0  0.78690  0.72550  0.53890  1.0000 0.0445704516
H   H71       1.0  0.71310  0.27450  0.03890  1.0000 0.0445704516
H   H72       1.0  0.21310  0.22550  0.96110  1.0000 0.0445704516
H   H73       1.0  0.98630  0.27070  0.41110  1.0000 0.0913027814
H   H74       1.0  0.48630  0.22930  0.58890  1.0000 0.0913027814
H   H75       1.0  0.01370  0.77070  0.08890  1.0000 0.0913027814
H   H76       1.0  0.51370  0.72930  0.91110  1.0000 0.0913027814
H   H77       1.0  0.01370  0.72930  0.58890  1.0000 0.0913027814
H   H78       1.0  0.51370  0.77070  0.41110  1.0000 0.0913027814
H   H79       1.0  0.98630  0.22930  0.91110  1.0000 0.0913027814
H   H80       1.0  0.48630  0.27070  0.08890  1.0000 0.0913027814
H   H81       1.0  0.71590  0.94890  0.36370  1.0000 0.1011109974
H   H82       1.0  0.21590  0.55110  0.63630  1.0000 0.1011109974
H   H83       1.0  0.28410  0.44890  0.13630  1.0000 0.1011109974
H   H84       1.0  0.78410  0.05110  0.86370  1.0000 0.1011109974
H   H85       1.0  0.28410  0.05110  0.63630  1.0000 0.1011109974
H   H86       1.0  0.78410  0.44890  0.36370  1.0000 0.1011109974
H   H87       1.0  0.71590  0.55110  0.86370  1.0000 0.1011109974
H   H88       1.0  0.21590  0.94890  0.13630  1.0000 0.1011109974
H   H89       1.0  0.80780  0.03790  0.22120  1.0000 0.0766154584
H   H90       1.0  0.30780  0.46210  0.77880  1.0000 0.0766154584
H   H91       1.0  0.19220  0.53790  0.27880  1.0000 0.0766154584
H   H92       1.0  0.69220  0.96210  0.72120  1.0000 0.0766154584
H   H93       1.0  0.19220  0.96210  0.77880  1.0000 0.0766154584
H   H94       1.0  0.69220  0.53790  0.22120  1.0000 0.0766154584
H   H95       1.0  0.80780  0.46210  0.72120  1.0000 0.0766154584
H   H96       1.0  0.30780  0.03790  0.27880  1.0000 0.0766154584
C   C1        1.0  0.78050  0.30484  0.43652  1.0000 -0.0607384574
C   C2        1.0  0.28050  0.19516  0.56348  1.0000 -0.0607384574
C   C3        1.0  0.21950  0.80484  0.06348  1.0000 -0.0607384574
C   C4        1.0  0.71950  0.69516  0.93652  1.0000 -0.0607384574
C   C5        1.0  0.21950  0.69516  0.56348  1.0000 -0.0607384574
C   C6        1.0  0.71950  0.80484  0.43652  1.0000 -0.0607384574
C   C7        1.0  0.78050  0.19516  0.93652  1.0000 -0.0607384574
C   C8        1.0  0.28050  0.30484  0.06348  1.0000 -0.0607384574
C   C9        1.0  0.58845  0.96598  0.28956  1.0000 -0.0702583939
C   C10       1.0  0.08845  0.53402  0.71044  1.0000 -0.0702583939
C   C11       1.0  0.41155  0.46598  0.21044  1.0000 -0.0702583939
C   C12       1.0  0.91155  0.03402  0.78956  1.0000 -0.0702583939
C   C13       1.0  0.41155  0.03402  0.71044  1.0000 -0.0702583939
C   C14       1.0  0.91155  0.46598  0.28956  1.0000 -0.0702583939
C   C15       1.0  0.58845  0.53402  0.78956  1.0000 -0.0702583939
C   C16       1.0  0.08845  0.96598  0.21044  1.0000 -0.0702583939
C   C17       1.0  0.01489  0.08040  0.41802  1.0000 0.13647688
C   C18       1.0  0.51489  0.41960  0.58198  1.0000 0.13647688
C   C19       1.0  0.98511  0.58040  0.08198  1.0000 0.13647688
C   C20       1.0  0.48511  0.91960  0.91802  1.0000 0.13647688
C   C21       1.0  0.98511  0.91960  0.58198  1.0000 0.13647688
C   C22       1.0  0.48511  0.58040  0.41802  1.0000 0.13647688
C   C23       1.0  0.01489  0.41960  0.91802  1.0000 0.13647688
C   C24       1.0  0.51489  0.08040  0.08198  1.0000 0.13647688
C   C25       1.0  0.14339  0.85557  0.39557  1.0000 -0.0702583939
C   C26       1.0  0.64339  0.64443  0.60443  1.0000 -0.0702583939
C   C27       1.0  0.85661  0.35557  0.10443  1.0000 -0.0702583939
C   C28       1.0  0.35661  0.14443  0.89557  1.0000 -0.0702583939
C   C29       1.0  0.85661  0.14443  0.60443  1.0000 -0.0702583939
C   C30       1.0  0.35661  0.35557  0.39557  1.0000 -0.0702583939
C   C31       1.0  0.14339  0.64443  0.89557  1.0000 -0.0702583939
C   C32       1.0  0.64339  0.85557  0.10443  1.0000 -0.0702583939
C   C33       1.0  0.10546  0.11767  0.34606  1.0000 -0.0607384574
C   C34       1.0  0.60546  0.38233  0.65394  1.0000 -0.0607384574
C   C35       1.0  0.89454  0.61767  0.15394  1.0000 -0.0607384574
C   C36       1.0  0.39454  0.88233  0.84606  1.0000 -0.0607384574
C   C37       1.0  0.89454  0.88233  0.65394  1.0000 -0.0607384574
C   C38       1.0  0.39454  0.61767  0.34606  1.0000 -0.0607384574
C   C39       1.0  0.10546  0.38233  0.84606  1.0000 -0.0607384574
C   C40       1.0  0.60546  0.11767  0.15394  1.0000 -0.0607384574
C   C41       1.0  0.10928  0.15535  0.38790  1.0000 -0.0607384574
C   C42       1.0  0.60928  0.34465  0.61210  1.0000 -0.0607384574
C   C43       1.0  0.89072  0.65535  0.11210  1.0000 -0.0607384574
C   C44       1.0  0.39072  0.84465  0.88790  1.0000 -0.0607384574
C   C45       1.0  0.89072  0.84465  0.61210  1.0000 -0.0607384574
C   C46       1.0  0.39072  0.65535  0.38790  1.0000 -0.0607384574
C   C47       1.0  0.10928  0.34465  0.88790  1.0000 -0.0607384574
C   C48       1.0  0.60928  0.15535  0.11210  1.0000 -0.0607384574
C   C49       1.0  0.99539  0.91859  0.41784  1.0000 0.123186877
C   C50       1.0  0.49539  0.58141  0.58216  1.0000 0.123186877
C   C51       1.0  0.00461  0.41859  0.08216  1.0000 0.123186877
C   C52       1.0  0.50461  0.08141  0.91784  1.0000 0.123186877
C   C53       1.0  0.00461  0.08141  0.58216  1.0000 0.123186877
C   C54       1.0  0.50461  0.41859  0.41784  1.0000 0.123186877
C   C55       1.0  0.99539  0.58141  0.91784  1.0000 0.123186877
C   C56       1.0  0.49539  0.91859  0.08216  1.0000 0.123186877
C   C57       1.0  0.14195  0.89519  0.35532  1.0000 -0.0607384574
C   C58       1.0  0.64195  0.60481  0.64468  1.0000 -0.0607384574
C   C59       1.0  0.85805  0.39519  0.14468  1.0000 -0.0607384574
C   C60       1.0  0.35805  0.10481  0.85532  1.0000 -0.0607384574
C   C61       1.0  0.85805  0.10481  0.64468  1.0000 -0.0607384574
C   C62       1.0  0.35805  0.39519  0.35532  1.0000 -0.0607384574
C   C63       1.0  0.14195  0.60481  0.85532  1.0000 -0.0607384574
C   C64       1.0  0.64195  0.89519  0.14468  1.0000 -0.0607384574
C   C65       1.0  0.75581  0.24737  0.50269  1.0000 0.1515983846
C   C66       1.0  0.25581  0.25263  0.49731  1.0000 0.1515983846
C   C67       1.0  0.24419  0.74737  0.99731  1.0000 0.1515983846
C   C68       1.0  0.74419  0.75263  0.00269  1.0000 0.1515983846
C   C69       1.0  0.24419  0.75263  0.49731  1.0000 0.1515983846
C   C70       1.0  0.74419  0.74737  0.50269  1.0000 0.1515983846
C   C71       1.0  0.75581  0.25263  0.00269  1.0000 0.1515983846
C   C72       1.0  0.25581  0.24737  0.99731  1.0000 0.1515983846
C   C73       1.0  0.89504  0.27102  0.43819  1.0000 -0.0607384574
C   C74       1.0  0.39504  0.22898  0.56181  1.0000 -0.0607384574
C   C75       1.0  0.10496  0.77102  0.06181  1.0000 -0.0607384574
C   C76       1.0  0.60496  0.72898  0.93819  1.0000 -0.0607384574
C   C77       1.0  0.10496  0.72898  0.56181  1.0000 -0.0607384574
C   C78       1.0  0.60496  0.77102  0.43819  1.0000 -0.0607384574
C   C79       1.0  0.89504  0.22898  0.93819  1.0000 -0.0607384574
C   C80       1.0  0.39504  0.27102  0.06181  1.0000 -0.0607384574
C   C81       1.0  0.70157  0.96608  0.32355  1.0000 -0.0702583939
C   C82       1.0  0.20157  0.53392  0.67645  1.0000 -0.0702583939
C   C83       1.0  0.29843  0.46608  0.17645  1.0000 -0.0702583939
C   C84       1.0  0.79843  0.03392  0.82355  1.0000 -0.0702583939
C   C85       1.0  0.29843  0.03392  0.67645  1.0000 -0.0702583939
C   C86       1.0  0.79843  0.46608  0.32355  1.0000 -0.0702583939
C   C87       1.0  0.70157  0.53392  0.82355  1.0000 -0.0702583939
C   C88       1.0  0.20157  0.96608  0.17645  1.0000 -0.0702583939
C   C89       1.0  0.75249  0.01239  0.25075  1.0000 0.1347940322
C   C90       1.0  0.25249  0.48761  0.74925  1.0000 0.1347940322
C   C91       1.0  0.24751  0.51239  0.24925  1.0000 0.1347940322
C   C92       1.0  0.74751  0.98761  0.75075  1.0000 0.1347940322
C   C93       1.0  0.24751  0.98761  0.74925  1.0000 0.1347940322
C   C94       1.0  0.74751  0.51239  0.25075  1.0000 0.1347940322
C   C95       1.0  0.75249  0.48761  0.75075  1.0000 0.1347940322
C   C96       1.0  0.25249  0.01239  0.24925  1.0000 0.1347940322
N   N1        1.0  0.04541  0.06983  0.36556  1.0000 -0.2992978487
N   N2        1.0  0.54541  0.43017  0.63444  1.0000 -0.2992978487
N   N3        1.0  0.95459  0.56983  0.13444  1.0000 -0.2992978487
N   N4        1.0  0.45459  0.93017  0.86556  1.0000 -0.2992978487
N   N5        1.0  0.95459  0.93017  0.63444  1.0000 -0.2992978487
N   N6        1.0  0.45459  0.56983  0.36556  1.0000 -0.2992978487
N   N7        1.0  0.04541  0.43017  0.86556  1.0000 -0.2992978487
N   N8        1.0  0.54541  0.06983  0.13444  1.0000 -0.2992978487
N   N9        1.0  0.87874  0.23451  0.48075  1.0000 -0.2888360361
N   N10       1.0  0.37874  0.26549  0.51925  1.0000 -0.2888360361
N   N11       1.0  0.12126  0.73451  0.01925  1.0000 -0.2888360361
N   N12       1.0  0.62126  0.76549  0.98075  1.0000 -0.2888360361
N   N13       1.0  0.12126  0.76549  0.51925  1.0000 -0.2888360361
N   N14       1.0  0.62126  0.73451  0.48075  1.0000 -0.2888360361
N   N15       1.0  0.87874  0.26549  0.98075  1.0000 -0.2888360361
N   N16       1.0  0.37874  0.23451  0.01925  1.0000 -0.2888360361
N   N17       1.0  0.69231  0.28968  0.47778  1.0000 -0.2888360361
N   N18       1.0  0.19231  0.21032  0.52222  1.0000 -0.2888360361
N   N19       1.0  0.30769  0.78968  0.02222  1.0000 -0.2888360361
N   N20       1.0  0.80769  0.71032  0.97778  1.0000 -0.2888360361
N   N21       1.0  0.30769  0.71032  0.52222  1.0000 -0.2888360361
N   N22       1.0  0.80769  0.78968  0.47778  1.0000 -0.2888360361
N   N23       1.0  0.69231  0.21032  0.97778  1.0000 -0.2888360361
N   N24       1.0  0.19231  0.28968  0.02222  1.0000 -0.2888360361
N   N25       1.0  0.04719  0.93520  0.36964  1.0000 -0.2888360361
N   N26       1.0  0.54719  0.56480  0.63036  1.0000 -0.2888360361
N   N27       1.0  0.95281  0.43520  0.13036  1.0000 -0.2888360361
N   N28       1.0  0.45281  0.06480  0.86964  1.0000 -0.2888360361
N   N29       1.0  0.95281  0.06480  0.63036  1.0000 -0.2888360361
N   N30       1.0  0.45281  0.43520  0.36964  1.0000 -0.2888360361
N   N31       1.0  0.04719  0.56480  0.86964  1.0000 -0.2888360361
N   N32       1.0  0.54719  0.93520  0.13036  1.0000 -0.2888360361
N   N33       1.0  0.05133  0.13155  0.43344  1.0000 -0.2888360361
N   N34       1.0  0.55133  0.36845  0.56656  1.0000 -0.2888360361
N   N35       1.0  0.94867  0.63155  0.06656  1.0000 -0.2888360361
N   N36       1.0  0.44867  0.86845  0.93344  1.0000 -0.2888360361
N   N37       1.0  0.94867  0.86845  0.56656  1.0000 -0.2888360361
N   N38       1.0  0.44867  0.63155  0.43344  1.0000 -0.2888360361
N   N39       1.0  0.05133  0.36845  0.93344  1.0000 -0.2888360361
N   N40       1.0  0.55133  0.13155  0.06656  1.0000 -0.2888360361
N   N41       1.0  0.04937  0.87053  0.43522  1.0000 -0.2888360361
N   N42       1.0  0.54937  0.62947  0.56478  1.0000 -0.2888360361
N   N43       1.0  0.95063  0.37053  0.06478  1.0000 -0.2888360361
N   N44       1.0  0.45063  0.12947  0.93522  1.0000 -0.2888360361
N   N45       1.0  0.95063  0.12947  0.56478  1.0000 -0.2888360361
N   N46       1.0  0.45063  0.37053  0.43522  1.0000 -0.2888360361
N   N47       1.0  0.04937  0.62947  0.93522  1.0000 -0.2888360361
N   N48       1.0  0.54937  0.87053  0.06478  1.0000 -0.2888360361
N   N49       1.0  0.62146  0.99576  0.24312  1.0000 -0.2888360361
N   N50       1.0  0.12146  0.50424  0.75688  1.0000 -0.2888360361
N   N51       1.0  0.37854  0.49576  0.25688  1.0000 -0.2888360361
N   N52       1.0  0.87854  0.00424  0.74312  1.0000 -0.2888360361
N   N53       1.0  0.37854  0.00424  0.75688  1.0000 -0.2888360361
N   N54       1.0  0.87854  0.49576  0.24312  1.0000 -0.2888360361
N   N55       1.0  0.62146  0.50424  0.74312  1.0000 -0.2888360361
N   N56       1.0  0.12146  0.99576  0.25688  1.0000 -0.2888360361
N   N57       1.0  0.80600  0.99559  0.29857  1.0000 -0.2888360361
N   N58       1.0  0.30600  0.50441  0.70143  1.0000 -0.2888360361
N   N59       1.0  0.19400  0.49559  0.20143  1.0000 -0.2888360361
N   N60       1.0  0.69400  0.00441  0.79857  1.0000 -0.2888360361
N   N61       1.0  0.19400  0.00441  0.70143  1.0000 -0.2888360361
N   N62       1.0  0.69400  0.49559  0.29857  1.0000 -0.2888360361
N   N63       1.0  0.80600  0.50441  0.79857  1.0000 -0.2888360361
N   N64       1.0  0.30600  0.99559  0.20143  1.0000 -0.2888360361
