# DDEC6 charges by PACMAN v1.1 (https://github.com/mtap-research/PACMAN-charge/)
data_2024[Zn][crb]3[ASR]22
_chemical_formula_sum              "Zn16 H96 C96 N64"
_cell_length_a       9.63356
_cell_length_b       24.0923
_cell_length_c       24.4097
_cell_angle_alpha    90
_cell_angle_beta     90
_cell_angle_gamma    90

_symmetry_space_group_name_H-M    "P 1"
_symmetry_Int_Tables_number       1

loop_
  _symmetry_equiv_pos_as_xyz
  'x, y, z'

loop_
  _atom_site_type_symbol
  _atom_site_label
  _atom_site_symmetry_multiplicity
  _atom_site_fract_x
  _atom_site_fract_y
  _atom_site_fract_z
  _atom_site_occupancy
  _atom_site_charge
Zn  Zn1       1.0  0.01228  0.17442  0.50140  1.0000 0.6157019942
Zn  Zn2       1.0  0.51228  0.32558  0.49860  1.0000 0.6157019942
Zn  Zn3       1.0  0.98772  0.67442  0.99860  1.0000 0.6157019942
Zn  Zn4       1.0  0.48772  0.82558  0.00140  1.0000 0.6157019942
Zn  Zn5       1.0  0.98772  0.82558  0.49860  1.0000 0.6157019942
Zn  Zn6       1.0  0.48772  0.67442  0.50140  1.0000 0.6157019942
Zn  Zn7       1.0  0.01228  0.32558  0.00140  1.0000 0.6157019942
Zn  Zn8       1.0  0.51228  0.17442  0.99860  1.0000 0.6157019942
Zn  Zn9       1.0  0.00268  0.00175  0.32394  1.0000 0.6157019942
Zn  Zn10      1.0  0.50268  0.49825  0.67606  1.0000 0.6157019942
Zn  Zn11      1.0  0.99732  0.50175  0.17606  1.0000 0.6157019942
Zn  Zn12      1.0  0.49732  0.99825  0.82394  1.0000 0.6157019942
Zn  Zn13      1.0  0.99732  0.99825  0.67606  1.0000 0.6157019942
Zn  Zn14      1.0  0.49732  0.50175  0.32394  1.0000 0.6157019942
Zn  Zn15      1.0  0.00268  0.49825  0.82394  1.0000 0.6157019942
Zn  Zn16      1.0  0.50268  0.00175  0.17606  1.0000 0.6157019942
H   H1        1.0  0.75520  0.33710  0.40890  1.0000 0.100956426
H   H2        1.0  0.25520  0.16290  0.59110  1.0000 0.100956426
H   H3        1.0  0.24480  0.83710  0.09110  1.0000 0.100956426
H   H4        1.0  0.74480  0.66290  0.90890  1.0000 0.100956426
H   H5        1.0  0.24480  0.66290  0.59110  1.0000 0.100956426
H   H6        1.0  0.74480  0.83710  0.40890  1.0000 0.100956426
H   H7        1.0  0.75520  0.16290  0.90890  1.0000 0.100956426
H   H8        1.0  0.25520  0.33710  0.09110  1.0000 0.100956426
H   H9        1.0  0.49050  0.94620  0.29380  1.0000 0.100956426
H   H10       1.0  0.99050  0.55380  0.70620  1.0000 0.100956426
H   H11       1.0  0.50950  0.44620  0.20620  1.0000 0.100956426
H   H12       1.0  0.00950  0.05380  0.79380  1.0000 0.100956426
H   H13       1.0  0.50950  0.05380  0.70620  1.0000 0.100956426
H   H14       1.0  0.00950  0.44620  0.29380  1.0000 0.100956426
H   H15       1.0  0.49050  0.55380  0.79380  1.0000 0.100956426
H   H16       1.0  0.99050  0.94620  0.20620  1.0000 0.100956426
H   H17       1.0  0.96270  0.05220  0.44410  1.0000 0.0783811127
H   H18       1.0  0.46270  0.44780  0.55590  1.0000 0.0783811127
H   H19       1.0  0.03730  0.55220  0.05590  1.0000 0.0783811127
H   H20       1.0  0.53730  0.94780  0.94410  1.0000 0.0783811127
H   H21       1.0  0.03730  0.94780  0.55590  1.0000 0.0783811127
H   H22       1.0  0.53730  0.55220  0.44410  1.0000 0.0783811127
H   H23       1.0  0.96270  0.44780  0.94410  1.0000 0.0783811127
H   H24       1.0  0.46270  0.05220  0.05590  1.0000 0.0783811127
H   H25       1.0  0.20400  0.81940  0.39810  1.0000 0.100956426
H   H26       1.0  0.70400  0.68060  0.60190  1.0000 0.100956426
H   H27       1.0  0.79600  0.31940  0.10190  1.0000 0.100956426
H   H28       1.0  0.29600  0.18060  0.89810  1.0000 0.100956426
H   H29       1.0  0.79600  0.18060  0.60190  1.0000 0.100956426
H   H30       1.0  0.29600  0.31940  0.39810  1.0000 0.100956426
H   H31       1.0  0.20400  0.68060  0.89810  1.0000 0.100956426
H   H32       1.0  0.70400  0.81940  0.10190  1.0000 0.100956426
H   H33       1.0  0.14100  0.12120  0.30490  1.0000 0.100956426
H   H34       1.0  0.64100  0.37880  0.69510  1.0000 0.100956426
H   H35       1.0  0.85900  0.62120  0.19510  1.0000 0.100956426
H   H36       1.0  0.35900  0.87880  0.80490  1.0000 0.100956426
H   H37       1.0  0.85900  0.87880  0.69510  1.0000 0.100956426
H   H38       1.0  0.35900  0.62120  0.30490  1.0000 0.100956426
H   H39       1.0  0.14100  0.37880  0.80490  1.0000 0.100956426
H   H40       1.0  0.64100  0.12120  0.19510  1.0000 0.100956426
H   H41       1.0  0.14600  0.19710  0.38960  1.0000 0.100956426
H   H42       1.0  0.64600  0.30290  0.61040  1.0000 0.100956426
H   H43       1.0  0.85400  0.69710  0.11040  1.0000 0.100956426
H   H44       1.0  0.35400  0.80290  0.88960  1.0000 0.100956426
H   H45       1.0  0.85400  0.80290  0.61040  1.0000 0.100956426
H   H46       1.0  0.35400  0.69710  0.38960  1.0000 0.100956426
H   H47       1.0  0.14600  0.30290  0.88960  1.0000 0.100956426
H   H48       1.0  0.64600  0.19710  0.11040  1.0000 0.100956426
H   H49       1.0  0.92000  0.94160  0.43960  1.0000 0.0783811127
H   H50       1.0  0.42000  0.55840  0.56040  1.0000 0.0783811127
H   H51       1.0  0.08000  0.44160  0.06040  1.0000 0.0783811127
H   H52       1.0  0.58000  0.05840  0.93960  1.0000 0.0783811127
H   H53       1.0  0.08000  0.05840  0.56040  1.0000 0.0783811127
H   H54       1.0  0.58000  0.44160  0.43960  1.0000 0.0783811127
H   H55       1.0  0.92000  0.55840  0.93960  1.0000 0.0783811127
H   H56       1.0  0.42000  0.94160  0.06040  1.0000 0.0783811127
H   H57       1.0  0.19800  0.89700  0.31830  1.0000 0.1061650955
H   H58       1.0  0.69800  0.60300  0.68170  1.0000 0.1061650955
H   H59       1.0  0.80200  0.39700  0.18170  1.0000 0.1061650955
H   H60       1.0  0.30200  0.10300  0.81830  1.0000 0.1061650955
H   H61       1.0  0.80200  0.10300  0.68170  1.0000 0.1061650955
H   H62       1.0  0.30200  0.39700  0.31830  1.0000 0.1061650955
H   H63       1.0  0.19800  0.60300  0.81830  1.0000 0.1061650955
H   H64       1.0  0.69800  0.89700  0.18170  1.0000 0.1061650955
H   H65       1.0  0.71350  0.22570  0.53800  1.0000 0.0540665633
H   H66       1.0  0.21350  0.27430  0.46200  1.0000 0.0540665633
H   H67       1.0  0.28650  0.72570  0.96200  1.0000 0.0540665633
H   H68       1.0  0.78650  0.77430  0.03800  1.0000 0.0540665633
H   H69       1.0  0.28650  0.77430  0.46200  1.0000 0.0540665633
H   H70       1.0  0.78650  0.72570  0.53800  1.0000 0.0540665633
H   H71       1.0  0.71350  0.27430  0.03800  1.0000 0.0540665633
H   H72       1.0  0.21350  0.22570  0.96200  1.0000 0.0540665633
H   H73       1.0  0.98510  0.27080  0.41190  1.0000 0.0918825551
H   H74       1.0  0.48510  0.22920  0.58810  1.0000 0.0918825551
H   H75       1.0  0.01490  0.77080  0.08810  1.0000 0.0918825551
H   H76       1.0  0.51490  0.72920  0.91190  1.0000 0.0918825551
H   H77       1.0  0.01490  0.72920  0.58810  1.0000 0.0918825551
H   H78       1.0  0.51490  0.77080  0.41190  1.0000 0.0918825551
H   H79       1.0  0.98510  0.22920  0.91190  1.0000 0.0918825551
H   H80       1.0  0.48510  0.27080  0.08810  1.0000 0.0918825551
H   H81       1.0  0.71650  0.94880  0.36300  1.0000 0.100956426
H   H82       1.0  0.21650  0.55120  0.63700  1.0000 0.100956426
H   H83       1.0  0.28350  0.44880  0.13700  1.0000 0.100956426
H   H84       1.0  0.78350  0.05120  0.86300  1.0000 0.100956426
H   H85       1.0  0.28350  0.05120  0.63700  1.0000 0.100956426
H   H86       1.0  0.78350  0.44880  0.36300  1.0000 0.100956426
H   H87       1.0  0.71650  0.55120  0.86300  1.0000 0.100956426
H   H88       1.0  0.21650  0.94880  0.13700  1.0000 0.100956426
H   H89       1.0  0.80680  0.03780  0.22190  1.0000 0.0783811127
H   H90       1.0  0.30680  0.46220  0.77810  1.0000 0.0783811127
H   H91       1.0  0.19320  0.53780  0.27810  1.0000 0.0783811127
H   H92       1.0  0.69320  0.96220  0.72190  1.0000 0.0783811127
H   H93       1.0  0.19320  0.96220  0.77810  1.0000 0.0783811127
H   H94       1.0  0.69320  0.53780  0.22190  1.0000 0.0783811127
H   H95       1.0  0.80680  0.46220  0.72190  1.0000 0.0783811127
H   H96       1.0  0.30680  0.03780  0.27810  1.0000 0.0783811127
C   C1        1.0  0.78046  0.30481  0.43654  1.0000 -0.0624944295
C   C2        1.0  0.28046  0.19519  0.56346  1.0000 -0.0624944295
C   C3        1.0  0.21954  0.80481  0.06346  1.0000 -0.0624944295
C   C4        1.0  0.71954  0.69519  0.93654  1.0000 -0.0624944295
C   C5        1.0  0.21954  0.69519  0.56346  1.0000 -0.0624944295
C   C6        1.0  0.71954  0.80481  0.43654  1.0000 -0.0624944295
C   C7        1.0  0.78046  0.19519  0.93654  1.0000 -0.0624944295
C   C8        1.0  0.28046  0.30481  0.06346  1.0000 -0.0624944295
C   C9        1.0  0.58855  0.96601  0.28955  1.0000 -0.0698170176
C   C10       1.0  0.08855  0.53399  0.71045  1.0000 -0.0698170176
C   C11       1.0  0.41145  0.46601  0.21045  1.0000 -0.0698170176
C   C12       1.0  0.91145  0.03399  0.78955  1.0000 -0.0698170176
C   C13       1.0  0.41145  0.03399  0.71045  1.0000 -0.0698170176
C   C14       1.0  0.91145  0.46601  0.28955  1.0000 -0.0698170176
C   C15       1.0  0.58855  0.53399  0.78955  1.0000 -0.0698170176
C   C16       1.0  0.08855  0.96601  0.21045  1.0000 -0.0698170176
C   C17       1.0  0.01494  0.08042  0.41802  1.0000 0.1306082218
C   C18       1.0  0.51494  0.41958  0.58198  1.0000 0.1306082218
C   C19       1.0  0.98506  0.58042  0.08198  1.0000 0.1306082218
C   C20       1.0  0.48506  0.91958  0.91802  1.0000 0.1306082218
C   C21       1.0  0.98506  0.91958  0.58198  1.0000 0.1306082218
C   C22       1.0  0.48506  0.58042  0.41802  1.0000 0.1306082218
C   C23       1.0  0.01494  0.41958  0.91802  1.0000 0.1306082218
C   C24       1.0  0.51494  0.08042  0.08198  1.0000 0.1306082218
C   C25       1.0  0.14331  0.85561  0.39557  1.0000 -0.0698170176
C   C26       1.0  0.64331  0.64439  0.60443  1.0000 -0.0698170176
C   C27       1.0  0.85669  0.35561  0.10443  1.0000 -0.0698170176
C   C28       1.0  0.35669  0.14439  0.89557  1.0000 -0.0698170176
C   C29       1.0  0.85669  0.14439  0.60443  1.0000 -0.0698170176
C   C30       1.0  0.35669  0.35561  0.39557  1.0000 -0.0698170176
C   C31       1.0  0.14331  0.64439  0.89557  1.0000 -0.0698170176
C   C32       1.0  0.64331  0.85561  0.10443  1.0000 -0.0698170176
C   C33       1.0  0.10543  0.11766  0.34609  1.0000 -0.0698170176
C   C34       1.0  0.60543  0.38234  0.65391  1.0000 -0.0698170176
C   C35       1.0  0.89457  0.61766  0.15391  1.0000 -0.0698170176
C   C36       1.0  0.39457  0.88234  0.84609  1.0000 -0.0698170176
C   C37       1.0  0.89457  0.88234  0.65391  1.0000 -0.0698170176
C   C38       1.0  0.39457  0.61766  0.34609  1.0000 -0.0698170176
C   C39       1.0  0.10543  0.38234  0.84609  1.0000 -0.0698170176
C   C40       1.0  0.60543  0.11766  0.15391  1.0000 -0.0698170176
C   C41       1.0  0.10922  0.15532  0.38791  1.0000 -0.0624944295
C   C42       1.0  0.60922  0.34468  0.61209  1.0000 -0.0624944295
C   C43       1.0  0.89078  0.65532  0.11209  1.0000 -0.0624944295
C   C44       1.0  0.39078  0.84468  0.88791  1.0000 -0.0624944295
C   C45       1.0  0.89078  0.84468  0.61209  1.0000 -0.0624944295
C   C46       1.0  0.39078  0.65532  0.38791  1.0000 -0.0624944295
C   C47       1.0  0.10922  0.34468  0.88791  1.0000 -0.0624944295
C   C48       1.0  0.60922  0.15532  0.11209  1.0000 -0.0624944295
C   C49       1.0  0.99546  0.91857  0.41784  1.0000 0.1184464826
C   C50       1.0  0.49546  0.58143  0.58216  1.0000 0.1184464826
C   C51       1.0  0.00454  0.41857  0.08216  1.0000 0.1184464826
C   C52       1.0  0.50454  0.08143  0.91784  1.0000 0.1184464826
C   C53       1.0  0.00454  0.08143  0.58216  1.0000 0.1184464826
C   C54       1.0  0.50454  0.41857  0.41784  1.0000 0.1184464826
C   C55       1.0  0.99546  0.58143  0.91784  1.0000 0.1184464826
C   C56       1.0  0.49546  0.91857  0.08216  1.0000 0.1184464826
C   C57       1.0  0.14190  0.89520  0.35536  1.0000 -0.0624944295
C   C58       1.0  0.64190  0.60480  0.64464  1.0000 -0.0624944295
C   C59       1.0  0.85810  0.39520  0.14464  1.0000 -0.0624944295
C   C60       1.0  0.35810  0.10480  0.85536  1.0000 -0.0624944295
C   C61       1.0  0.85810  0.10480  0.64464  1.0000 -0.0624944295
C   C62       1.0  0.35810  0.39520  0.35536  1.0000 -0.0624944295
C   C63       1.0  0.14190  0.60480  0.85536  1.0000 -0.0624944295
C   C64       1.0  0.64190  0.89520  0.14464  1.0000 -0.0624944295
C   C65       1.0  0.75584  0.24739  0.50263  1.0000 0.1428358911
C   C66       1.0  0.25584  0.25261  0.49737  1.0000 0.1428358911
C   C67       1.0  0.24416  0.74739  0.99737  1.0000 0.1428358911
C   C68       1.0  0.74416  0.75261  0.00263  1.0000 0.1428358911
C   C69       1.0  0.24416  0.75261  0.49737  1.0000 0.1428358911
C   C70       1.0  0.74416  0.74739  0.50263  1.0000 0.1428358911
C   C71       1.0  0.75584  0.25261  0.00263  1.0000 0.1428358911
C   C72       1.0  0.25584  0.24739  0.99737  1.0000 0.1428358911
C   C73       1.0  0.89493  0.27102  0.43824  1.0000 -0.0698170176
C   C74       1.0  0.39493  0.22898  0.56176  1.0000 -0.0698170176
C   C75       1.0  0.10507  0.77102  0.06176  1.0000 -0.0624944295
C   C76       1.0  0.60507  0.72898  0.93824  1.0000 -0.0698170176
C   C77       1.0  0.10507  0.72898  0.56176  1.0000 -0.0698170176
C   C78       1.0  0.60507  0.77102  0.43824  1.0000 -0.0698170176
C   C79       1.0  0.89493  0.22898  0.93824  1.0000 -0.0698170176
C   C80       1.0  0.39493  0.27102  0.06176  1.0000 -0.0698170176
C   C81       1.0  0.70159  0.96610  0.32350  1.0000 -0.0698170176
C   C82       1.0  0.20159  0.53390  0.67650  1.0000 -0.0698170176
C   C83       1.0  0.29841  0.46610  0.17650  1.0000 -0.0698170176
C   C84       1.0  0.79841  0.03390  0.82350  1.0000 -0.0698170176
C   C85       1.0  0.29841  0.03390  0.67650  1.0000 -0.0698170176
C   C86       1.0  0.79841  0.46610  0.32350  1.0000 -0.0698170176
C   C87       1.0  0.70159  0.53390  0.82350  1.0000 -0.0698170176
C   C88       1.0  0.20159  0.96610  0.17650  1.0000 -0.0698170176
C   C89       1.0  0.75242  0.01238  0.25078  1.0000 0.1306082218
C   C90       1.0  0.25242  0.48762  0.74922  1.0000 0.1306082218
C   C91       1.0  0.24758  0.51238  0.24922  1.0000 0.1306082218
C   C92       1.0  0.74758  0.98762  0.75078  1.0000 0.1306082218
C   C93       1.0  0.24758  0.98762  0.74922  1.0000 0.1306082218
C   C94       1.0  0.74758  0.51238  0.25078  1.0000 0.1306082218
C   C95       1.0  0.75242  0.48762  0.75078  1.0000 0.1306082218
C   C96       1.0  0.25242  0.01238  0.24922  1.0000 0.1306082218
N   N1        1.0  0.04544  0.06992  0.36561  1.0000 -0.2973612935
N   N2        1.0  0.54544  0.43008  0.63439  1.0000 -0.2973612935
N   N3        1.0  0.95456  0.56992  0.13439  1.0000 -0.2973612935
N   N4        1.0  0.45456  0.93008  0.86561  1.0000 -0.2973612935
N   N5        1.0  0.95456  0.93008  0.63439  1.0000 -0.2973612935
N   N6        1.0  0.45456  0.56992  0.36561  1.0000 -0.2973612935
N   N7        1.0  0.04544  0.43008  0.86561  1.0000 -0.2973612935
N   N8        1.0  0.54544  0.06992  0.13439  1.0000 -0.2973612935
N   N9        1.0  0.87845  0.23462  0.48070  1.0000 -0.2876977953
N   N10       1.0  0.37845  0.26538  0.51930  1.0000 -0.2876977953
N   N11       1.0  0.12155  0.73462  0.01930  1.0000 -0.2876977953
N   N12       1.0  0.62155  0.76538  0.98070  1.0000 -0.2876977953
N   N13       1.0  0.12155  0.76538  0.51930  1.0000 -0.2876977953
N   N14       1.0  0.62155  0.73462  0.48070  1.0000 -0.2876977953
N   N15       1.0  0.87845  0.26538  0.98070  1.0000 -0.2876977953
N   N16       1.0  0.37845  0.23462  0.01930  1.0000 -0.2876977953
N   N17       1.0  0.69238  0.28967  0.47778  1.0000 -0.2876977953
N   N18       1.0  0.19238  0.21033  0.52222  1.0000 -0.2876977953
N   N19       1.0  0.30762  0.78967  0.02222  1.0000 -0.2876977953
N   N20       1.0  0.80762  0.71033  0.97778  1.0000 -0.2876977953
N   N21       1.0  0.30762  0.71033  0.52222  1.0000 -0.2876977953
N   N22       1.0  0.80762  0.78967  0.47778  1.0000 -0.2876977953
N   N23       1.0  0.69238  0.21033  0.97778  1.0000 -0.2876977953
N   N24       1.0  0.19238  0.28967  0.02222  1.0000 -0.2876977953
N   N25       1.0  0.04722  0.93508  0.36970  1.0000 -0.2876977953
N   N26       1.0  0.54722  0.56492  0.63030  1.0000 -0.2876977953
N   N27       1.0  0.95278  0.43508  0.13030  1.0000 -0.2876977953
N   N28       1.0  0.45278  0.06492  0.86970  1.0000 -0.2876977953
N   N29       1.0  0.95278  0.06492  0.63030  1.0000 -0.2876977953
N   N30       1.0  0.45278  0.43508  0.36970  1.0000 -0.2876977953
N   N31       1.0  0.04722  0.56492  0.86970  1.0000 -0.2876977953
N   N32       1.0  0.54722  0.93508  0.13030  1.0000 -0.2876977953
N   N33       1.0  0.05137  0.13149  0.43331  1.0000 -0.2876977953
N   N34       1.0  0.55137  0.36851  0.56669  1.0000 -0.2876977953
N   N35       1.0  0.94863  0.63149  0.06669  1.0000 -0.2876977953
N   N36       1.0  0.44863  0.86851  0.93331  1.0000 -0.2876977953
N   N37       1.0  0.94863  0.86851  0.56669  1.0000 -0.2876977953
N   N38       1.0  0.44863  0.63149  0.43331  1.0000 -0.2876977953
N   N39       1.0  0.05137  0.36851  0.93331  1.0000 -0.2876977953
N   N40       1.0  0.55137  0.13149  0.06669  1.0000 -0.2876977953
N   N41       1.0  0.04937  0.87054  0.43519  1.0000 -0.2876977953
N   N42       1.0  0.54937  0.62946  0.56481  1.0000 -0.2876977953
N   N43       1.0  0.95063  0.37054  0.06481  1.0000 -0.2876977953
N   N44       1.0  0.45063  0.12946  0.93519  1.0000 -0.2876977953
N   N45       1.0  0.95063  0.12946  0.56481  1.0000 -0.2876977953
N   N46       1.0  0.45063  0.37054  0.43519  1.0000 -0.2876977953
N   N47       1.0  0.04937  0.62946  0.93519  1.0000 -0.2876977953
N   N48       1.0  0.54937  0.87054  0.06481  1.0000 -0.2876977953
N   N49       1.0  0.62165  0.99572  0.24322  1.0000 -0.2876977953
N   N50       1.0  0.12165  0.50428  0.75678  1.0000 -0.2876977953
N   N51       1.0  0.37835  0.49572  0.25678  1.0000 -0.2876977953
N   N52       1.0  0.87835  0.00428  0.74322  1.0000 -0.2876977953
N   N53       1.0  0.37835  0.00428  0.75678  1.0000 -0.2876977953
N   N54       1.0  0.87835  0.49572  0.24322  1.0000 -0.2876977953
N   N55       1.0  0.62165  0.50428  0.74322  1.0000 -0.2876977953
N   N56       1.0  0.12165  0.99572  0.25678  1.0000 -0.2876977953
N   N57       1.0  0.80572  0.99556  0.29852  1.0000 -0.2876977953
N   N58       1.0  0.30572  0.50444  0.70148  1.0000 -0.2876977953
N   N59       1.0  0.19428  0.49556  0.20148  1.0000 -0.2876977953
N   N60       1.0  0.69428  0.00444  0.79852  1.0000 -0.2876977953
N   N61       1.0  0.19428  0.00444  0.70148  1.0000 -0.2876977953
N   N62       1.0  0.69428  0.49556  0.29852  1.0000 -0.2876977953
N   N63       1.0  0.80572  0.50444  0.79852  1.0000 -0.2876977953
N   N64       1.0  0.30572  0.99556  0.20148  1.0000 -0.2876977953
