# DDEC6 charges by PACMAN v1.1 (https://github.com/mtap-research/PACMAN-charge/)
data_2024[Zn][crb]3[FSR]32
_chemical_formula_sum              "Zn16 H96 C96 N64"
_cell_length_a       9.63356
_cell_length_b       24.0923
_cell_length_c       24.4097
_cell_angle_alpha    90
_cell_angle_beta     90
_cell_angle_gamma    90

_symmetry_space_group_name_H-M    "P 1"
_symmetry_Int_Tables_number       1

loop_
  _symmetry_equiv_pos_as_xyz
  'x, y, z'

loop_
  _atom_site_type_symbol
  _atom_site_label
  _atom_site_symmetry_multiplicity
  _atom_site_fract_x
  _atom_site_fract_y
  _atom_site_fract_z
  _atom_site_occupancy
  _atom_site_charge
Zn  Zn1       1.0  0.01231  0.17443  0.50141  1.0000 0.6219397292
Zn  Zn2       1.0  0.51231  0.32557  0.49859  1.0000 0.6219397292
Zn  Zn3       1.0  0.98769  0.67443  0.99859  1.0000 0.6219397292
Zn  Zn4       1.0  0.48769  0.82557  0.00141  1.0000 0.6219397292
Zn  Zn5       1.0  0.98769  0.82557  0.49859  1.0000 0.6219397292
Zn  Zn6       1.0  0.48769  0.67443  0.50141  1.0000 0.6219397292
Zn  Zn7       1.0  0.01231  0.32557  0.00141  1.0000 0.6219397292
Zn  Zn8       1.0  0.51231  0.17443  0.99859  1.0000 0.6219397292
Zn  Zn9       1.0  0.00267  0.00175  0.32393  1.0000 0.6219397292
Zn  Zn10      1.0  0.50267  0.49825  0.67607  1.0000 0.6219397292
Zn  Zn11      1.0  0.99733  0.50175  0.17607  1.0000 0.6219397292
Zn  Zn12      1.0  0.49733  0.99825  0.82393  1.0000 0.6219397292
Zn  Zn13      1.0  0.99733  0.99825  0.67607  1.0000 0.6219397292
Zn  Zn14      1.0  0.49733  0.50175  0.32393  1.0000 0.6219397292
Zn  Zn15      1.0  0.00267  0.49825  0.82393  1.0000 0.6219397292
Zn  Zn16      1.0  0.50267  0.00175  0.17607  1.0000 0.6219397292
H   H1        1.0  0.75700  0.33780  0.40880  1.0000 0.1010721438
H   H2        1.0  0.25700  0.16220  0.59120  1.0000 0.1010721438
H   H3        1.0  0.24300  0.83780  0.09120  1.0000 0.1010721438
H   H4        1.0  0.74300  0.66220  0.90880  1.0000 0.1010721438
H   H5        1.0  0.24300  0.66220  0.59120  1.0000 0.1010721438
H   H6        1.0  0.74300  0.83780  0.40880  1.0000 0.1010721438
H   H7        1.0  0.75700  0.16220  0.90880  1.0000 0.1010721438
H   H8        1.0  0.25700  0.33780  0.09120  1.0000 0.1010721438
H   H9        1.0  0.48600  0.94770  0.29390  1.0000 0.1010721438
H   H10       1.0  0.98600  0.55230  0.70610  1.0000 0.1010721438
H   H11       1.0  0.51400  0.44770  0.20610  1.0000 0.1010721438
H   H12       1.0  0.01400  0.05230  0.79390  1.0000 0.1010721438
H   H13       1.0  0.51400  0.05230  0.70610  1.0000 0.1010721438
H   H14       1.0  0.01400  0.44770  0.29390  1.0000 0.1010721438
H   H15       1.0  0.48600  0.55230  0.79390  1.0000 0.1010721438
H   H16       1.0  0.98600  0.94770  0.20610  1.0000 0.1010721438
H   H17       1.0  0.96000  0.05260  0.44360  1.0000 0.0816970497
H   H18       1.0  0.46000  0.44740  0.55640  1.0000 0.0816970497
H   H19       1.0  0.04000  0.55260  0.05640  1.0000 0.0816970497
H   H20       1.0  0.54000  0.94740  0.94360  1.0000 0.0816970497
H   H21       1.0  0.04000  0.94740  0.55640  1.0000 0.0816970497
H   H22       1.0  0.54000  0.55260  0.44360  1.0000 0.0816970497
H   H23       1.0  0.96000  0.44740  0.94360  1.0000 0.0816970497
H   H24       1.0  0.46000  0.05260  0.05640  1.0000 0.0816970497
H   H25       1.0  0.20400  0.81770  0.39940  1.0000 0.092194888
H   H26       1.0  0.70400  0.68230  0.60060  1.0000 0.092194888
H   H27       1.0  0.79600  0.31770  0.10060  1.0000 0.092194888
H   H28       1.0  0.29600  0.18230  0.89940  1.0000 0.092194888
H   H29       1.0  0.79600  0.18230  0.60060  1.0000 0.092194888
H   H30       1.0  0.29600  0.31770  0.39940  1.0000 0.092194888
H   H31       1.0  0.20400  0.68230  0.89940  1.0000 0.092194888
H   H32       1.0  0.70400  0.81770  0.10060  1.0000 0.092194888
H   H33       1.0  0.14700  0.12270  0.30540  1.0000 0.1010721438
H   H34       1.0  0.64700  0.37730  0.69460  1.0000 0.1010721438
H   H35       1.0  0.85300  0.62270  0.19460  1.0000 0.1010721438
H   H36       1.0  0.35300  0.87730  0.80540  1.0000 0.1010721438
H   H37       1.0  0.85300  0.87730  0.69460  1.0000 0.1010721438
H   H38       1.0  0.35300  0.62270  0.30540  1.0000 0.1010721438
H   H39       1.0  0.14700  0.37730  0.80540  1.0000 0.1010721438
H   H40       1.0  0.64700  0.12270  0.19460  1.0000 0.1010721438
H   H41       1.0  0.14300  0.19630  0.38620  1.0000 0.1010721438
H   H42       1.0  0.64300  0.30370  0.61380  1.0000 0.1010721438
H   H43       1.0  0.85700  0.69630  0.11380  1.0000 0.1010721438
H   H44       1.0  0.35700  0.80370  0.88620  1.0000 0.1010721438
H   H45       1.0  0.85700  0.80370  0.61380  1.0000 0.1010721438
H   H46       1.0  0.35700  0.69630  0.38620  1.0000 0.1010721438
H   H47       1.0  0.14300  0.30370  0.88620  1.0000 0.1010721438
H   H48       1.0  0.64300  0.19630  0.11380  1.0000 0.1010721438
H   H49       1.0  0.92200  0.94230  0.44230  1.0000 0.0700254722
H   H50       1.0  0.42200  0.55770  0.55770  1.0000 0.0700254722
H   H51       1.0  0.07800  0.44230  0.05770  1.0000 0.0700254722
H   H52       1.0  0.57800  0.05770  0.94230  1.0000 0.0700254722
H   H53       1.0  0.07800  0.05770  0.55770  1.0000 0.0700254722
H   H54       1.0  0.57800  0.44230  0.44230  1.0000 0.0700254722
H   H55       1.0  0.92200  0.55770  0.94230  1.0000 0.0700254722
H   H56       1.0  0.42200  0.94230  0.05770  1.0000 0.0700254722
H   H57       1.0  0.20000  0.89600  0.31830  1.0000 0.1067948446
H   H58       1.0  0.70000  0.60400  0.68170  1.0000 0.1067948446
H   H59       1.0  0.80000  0.39600  0.18170  1.0000 0.1067948446
H   H60       1.0  0.30000  0.10400  0.81830  1.0000 0.1067948446
H   H61       1.0  0.80000  0.10400  0.68170  1.0000 0.1067948446
H   H62       1.0  0.30000  0.39600  0.31830  1.0000 0.1067948446
H   H63       1.0  0.20000  0.60400  0.81830  1.0000 0.1067948446
H   H64       1.0  0.70000  0.89600  0.18170  1.0000 0.1067948446
H   H65       1.0  0.71500  0.22550  0.53940  1.0000 0.040432106
H   H66       1.0  0.21500  0.27450  0.46060  1.0000 0.040432106
H   H67       1.0  0.28500  0.72550  0.96060  1.0000 0.040432106
H   H68       1.0  0.78500  0.77450  0.03940  1.0000 0.040432106
H   H69       1.0  0.28500  0.77450  0.46060  1.0000 0.040432106
H   H70       1.0  0.78500  0.72550  0.53940  1.0000 0.040432106
H   H71       1.0  0.71500  0.27450  0.03940  1.0000 0.040432106
H   H72       1.0  0.21500  0.22550  0.96060  1.0000 0.040432106
H   H73       1.0  0.98000  0.27220  0.41280  1.0000 0.1010721438
H   H74       1.0  0.48000  0.22780  0.58720  1.0000 0.1010721438
H   H75       1.0  0.02000  0.77220  0.08720  1.0000 0.1010721438
H   H76       1.0  0.52000  0.72780  0.91280  1.0000 0.1010721438
H   H77       1.0  0.02000  0.72780  0.58720  1.0000 0.1010721438
H   H78       1.0  0.52000  0.77220  0.41280  1.0000 0.1010721438
H   H79       1.0  0.98000  0.22780  0.91280  1.0000 0.1010721438
H   H80       1.0  0.48000  0.27220  0.08720  1.0000 0.1010721438
H   H81       1.0  0.70800  0.95080  0.36510  1.0000 0.1010721438
H   H82       1.0  0.20800  0.54920  0.63490  1.0000 0.1010721438
H   H83       1.0  0.29200  0.45080  0.13490  1.0000 0.1010721438
H   H84       1.0  0.79200  0.04920  0.86510  1.0000 0.1010721438
H   H85       1.0  0.29200  0.04920  0.63490  1.0000 0.1010721438
H   H86       1.0  0.79200  0.45080  0.36510  1.0000 0.1010721438
H   H87       1.0  0.70800  0.54920  0.86510  1.0000 0.1010721438
H   H88       1.0  0.20800  0.95080  0.13490  1.0000 0.1010721438
H   H89       1.0  0.80700  0.03770  0.22010  1.0000 0.0700254722
H   H90       1.0  0.30700  0.46230  0.77990  1.0000 0.0700254722
H   H91       1.0  0.19300  0.53770  0.27990  1.0000 0.0700254722
H   H92       1.0  0.69300  0.96230  0.72010  1.0000 0.0700254722
H   H93       1.0  0.19300  0.96230  0.77990  1.0000 0.0700254722
H   H94       1.0  0.69300  0.53770  0.22010  1.0000 0.0700254722
H   H95       1.0  0.80700  0.46230  0.72010  1.0000 0.0700254722
H   H96       1.0  0.30700  0.03770  0.27990  1.0000 0.0700254722
C   C1        1.0  0.78060  0.30482  0.43654  1.0000 -0.0519506194
C   C2        1.0  0.28060  0.19518  0.56346  1.0000 -0.0519506194
C   C3        1.0  0.21940  0.80482  0.06346  1.0000 -0.0519506194
C   C4        1.0  0.71940  0.69518  0.93654  1.0000 -0.0519506194
C   C5        1.0  0.21940  0.69518  0.56346  1.0000 -0.0519506194
C   C6        1.0  0.71940  0.80482  0.43654  1.0000 -0.0519506194
C   C7        1.0  0.78060  0.19518  0.93654  1.0000 -0.0519506194
C   C8        1.0  0.28060  0.30482  0.06346  1.0000 -0.0519506194
C   C9        1.0  0.58840  0.96598  0.28955  1.0000 -0.0692736886
C   C10       1.0  0.08840  0.53402  0.71045  1.0000 -0.0692736886
C   C11       1.0  0.41160  0.46598  0.21045  1.0000 -0.0692736886
C   C12       1.0  0.91160  0.03402  0.78955  1.0000 -0.0692736886
C   C13       1.0  0.41160  0.03402  0.71045  1.0000 -0.0692736886
C   C14       1.0  0.91160  0.46598  0.28955  1.0000 -0.0692736886
C   C15       1.0  0.58840  0.53402  0.78955  1.0000 -0.0692736886
C   C16       1.0  0.08840  0.96598  0.21045  1.0000 -0.0692736886
C   C17       1.0  0.01470  0.08042  0.41801  1.0000 0.1265253082
C   C18       1.0  0.51470  0.41958  0.58199  1.0000 0.1265253082
C   C19       1.0  0.98530  0.58042  0.08199  1.0000 0.1265253082
C   C20       1.0  0.48530  0.91958  0.91801  1.0000 0.1265253082
C   C21       1.0  0.98530  0.91958  0.58199  1.0000 0.1265253082
C   C22       1.0  0.48530  0.58042  0.41801  1.0000 0.1265253082
C   C23       1.0  0.01470  0.41958  0.91801  1.0000 0.1265253082
C   C24       1.0  0.51470  0.08042  0.08199  1.0000 0.1265253082
C   C25       1.0  0.14360  0.85571  0.39551  1.0000 -0.0615880953
C   C26       1.0  0.64360  0.64429  0.60449  1.0000 -0.0615880953
C   C27       1.0  0.85640  0.35571  0.10449  1.0000 -0.0615880953
C   C28       1.0  0.35640  0.14429  0.89551  1.0000 -0.0615880953
C   C29       1.0  0.85640  0.14429  0.60449  1.0000 -0.0615880953
C   C30       1.0  0.35640  0.35571  0.39551  1.0000 -0.0615880953
C   C31       1.0  0.14360  0.64429  0.89551  1.0000 -0.0615880953
C   C32       1.0  0.64360  0.85571  0.10449  1.0000 -0.0615880953
C   C33       1.0  0.10520  0.11767  0.34599  1.0000 -0.0615880953
C   C34       1.0  0.60520  0.38233  0.65401  1.0000 -0.0615880953
C   C35       1.0  0.89480  0.61767  0.15401  1.0000 -0.0615880953
C   C36       1.0  0.39480  0.88233  0.84599  1.0000 -0.0615880953
C   C37       1.0  0.89480  0.88233  0.65401  1.0000 -0.0615880953
C   C38       1.0  0.39480  0.61767  0.34599  1.0000 -0.0615880953
C   C39       1.0  0.10520  0.38233  0.84599  1.0000 -0.0615880953
C   C40       1.0  0.60520  0.11767  0.15401  1.0000 -0.0615880953
C   C41       1.0  0.10910  0.15522  0.38794  1.0000 -0.0692736886
C   C42       1.0  0.60910  0.34478  0.61206  1.0000 -0.0692736886
C   C43       1.0  0.89090  0.65522  0.11206  1.0000 -0.0692736886
C   C44       1.0  0.39090  0.84478  0.88794  1.0000 -0.0692736886
C   C45       1.0  0.89090  0.84478  0.61206  1.0000 -0.0692736886
C   C46       1.0  0.39090  0.65522  0.38794  1.0000 -0.0692736886
C   C47       1.0  0.10910  0.34478  0.88794  1.0000 -0.0692736886
C   C48       1.0  0.60910  0.15522  0.11206  1.0000 -0.0692736886
C   C49       1.0  0.99520  0.91858  0.41787  1.0000 0.124393902
C   C50       1.0  0.49520  0.58142  0.58213  1.0000 0.124393902
C   C51       1.0  0.00480  0.41858  0.08213  1.0000 0.124393902
C   C52       1.0  0.50480  0.08142  0.91787  1.0000 0.124393902
C   C53       1.0  0.00480  0.08142  0.58213  1.0000 0.124393902
C   C54       1.0  0.50480  0.41858  0.41787  1.0000 0.124393902
C   C55       1.0  0.99520  0.58142  0.91787  1.0000 0.124393902
C   C56       1.0  0.49520  0.91858  0.08213  1.0000 0.124393902
C   C57       1.0  0.14200  0.89520  0.35526  1.0000 -0.0615880953
C   C58       1.0  0.64200  0.60480  0.64474  1.0000 -0.0615880953
C   C59       1.0  0.85800  0.39520  0.14474  1.0000 -0.0615880953
C   C60       1.0  0.35800  0.10480  0.85526  1.0000 -0.0615880953
C   C61       1.0  0.85800  0.10480  0.64474  1.0000 -0.0615880953
C   C62       1.0  0.35800  0.39520  0.35526  1.0000 -0.0615880953
C   C63       1.0  0.14200  0.60480  0.85526  1.0000 -0.0615880953
C   C64       1.0  0.64200  0.89520  0.14474  1.0000 -0.0615880953
C   C65       1.0  0.75570  0.24739  0.50269  1.0000 0.1584898263
C   C66       1.0  0.25570  0.25261  0.49731  1.0000 0.1584898263
C   C67       1.0  0.24430  0.74739  0.99731  1.0000 0.1584898263
C   C68       1.0  0.74430  0.75261  0.00269  1.0000 0.1584898263
C   C69       1.0  0.24430  0.75261  0.49731  1.0000 0.1584898263
C   C70       1.0  0.74430  0.74739  0.50269  1.0000 0.1584898263
C   C71       1.0  0.75570  0.25261  0.00269  1.0000 0.1584898263
C   C72       1.0  0.25570  0.24739  0.99731  1.0000 0.1584898263
C   C73       1.0  0.89490  0.27111  0.43822  1.0000 -0.0827183768
C   C74       1.0  0.39490  0.22889  0.56178  1.0000 -0.0827183768
C   C75       1.0  0.10510  0.77111  0.06178  1.0000 -0.0827183768
C   C76       1.0  0.60510  0.72889  0.93822  1.0000 -0.0827183768
C   C77       1.0  0.10510  0.72889  0.56178  1.0000 -0.0827183768
C   C78       1.0  0.60510  0.77111  0.43822  1.0000 -0.0827183768
C   C79       1.0  0.89490  0.22889  0.93822  1.0000 -0.0827183768
C   C80       1.0  0.39490  0.27111  0.06178  1.0000 -0.0827183768
C   C81       1.0  0.70160  0.96617  0.32355  1.0000 -0.0615880953
C   C82       1.0  0.20160  0.53383  0.67645  1.0000 -0.0615880953
C   C83       1.0  0.29840  0.46617  0.17645  1.0000 -0.0615880953
C   C84       1.0  0.79840  0.03383  0.82355  1.0000 -0.0615880953
C   C85       1.0  0.29840  0.03383  0.67645  1.0000 -0.0615880953
C   C86       1.0  0.79840  0.46617  0.32355  1.0000 -0.0615880953
C   C87       1.0  0.70160  0.53383  0.82355  1.0000 -0.0615880953
C   C88       1.0  0.20160  0.96617  0.17645  1.0000 -0.0615880953
C   C89       1.0  0.75270  0.01237  0.25069  1.0000 0.1381216861
C   C90       1.0  0.25270  0.48763  0.74931  1.0000 0.1381216861
C   C91       1.0  0.24730  0.51237  0.24931  1.0000 0.1381216861
C   C92       1.0  0.74730  0.98763  0.75069  1.0000 0.1381216861
C   C93       1.0  0.24730  0.98763  0.74931  1.0000 0.1381216861
C   C94       1.0  0.74730  0.51237  0.25069  1.0000 0.1381216861
C   C95       1.0  0.75270  0.48763  0.75069  1.0000 0.1381216861
C   C96       1.0  0.25270  0.01237  0.24931  1.0000 0.1381216861
N   N1        1.0  0.04564  0.06991  0.36549  1.0000 -0.2984535888
N   N2        1.0  0.54564  0.43009  0.63451  1.0000 -0.2984535888
N   N3        1.0  0.95436  0.56991  0.13451  1.0000 -0.2984535888
N   N4        1.0  0.45436  0.93009  0.86549  1.0000 -0.2984535888
N   N5        1.0  0.95436  0.93009  0.63451  1.0000 -0.2984535888
N   N6        1.0  0.45436  0.56991  0.36549  1.0000 -0.2984535888
N   N7        1.0  0.04564  0.43009  0.86549  1.0000 -0.2984535888
N   N8        1.0  0.54564  0.06991  0.13451  1.0000 -0.2984535888
N   N9        1.0  0.87882  0.23451  0.48076  1.0000 -0.290422824
N   N10       1.0  0.37882  0.26549  0.51924  1.0000 -0.290422824
N   N11       1.0  0.12118  0.73451  0.01924  1.0000 -0.290422824
N   N12       1.0  0.62118  0.76549  0.98076  1.0000 -0.290422824
N   N13       1.0  0.12118  0.76549  0.51924  1.0000 -0.290422824
N   N14       1.0  0.62118  0.73451  0.48076  1.0000 -0.290422824
N   N15       1.0  0.87882  0.26549  0.98076  1.0000 -0.290422824
N   N16       1.0  0.37882  0.23451  0.01924  1.0000 -0.290422824
N   N17       1.0  0.69236  0.28965  0.47777  1.0000 -0.290422824
N   N18       1.0  0.19236  0.21035  0.52223  1.0000 -0.290422824
N   N19       1.0  0.30764  0.78965  0.02223  1.0000 -0.290422824
N   N20       1.0  0.80764  0.71035  0.97777  1.0000 -0.290422824
N   N21       1.0  0.30764  0.71035  0.52223  1.0000 -0.290422824
N   N22       1.0  0.80764  0.78965  0.47777  1.0000 -0.290422824
N   N23       1.0  0.69236  0.21035  0.97777  1.0000 -0.290422824
N   N24       1.0  0.19236  0.28965  0.02223  1.0000 -0.290422824
N   N25       1.0  0.04724  0.93515  0.36962  1.0000 -0.290422824
N   N26       1.0  0.54724  0.56485  0.63038  1.0000 -0.290422824
N   N27       1.0  0.95276  0.43515  0.13038  1.0000 -0.290422824
N   N28       1.0  0.45276  0.06485  0.86962  1.0000 -0.290422824
N   N29       1.0  0.95276  0.06485  0.63038  1.0000 -0.290422824
N   N30       1.0  0.45276  0.43515  0.36962  1.0000 -0.290422824
N   N31       1.0  0.04724  0.56485  0.86962  1.0000 -0.290422824
N   N32       1.0  0.54724  0.93515  0.13038  1.0000 -0.290422824
N   N33       1.0  0.05150  0.13155  0.43349  1.0000 -0.290422824
N   N34       1.0  0.55150  0.36845  0.56651  1.0000 -0.290422824
N   N35       1.0  0.94850  0.63155  0.06651  1.0000 -0.290422824
N   N36       1.0  0.44850  0.86845  0.93349  1.0000 -0.290422824
N   N37       1.0  0.94850  0.86845  0.56651  1.0000 -0.290422824
N   N38       1.0  0.44850  0.63155  0.43349  1.0000 -0.290422824
N   N39       1.0  0.05150  0.36845  0.93349  1.0000 -0.290422824
N   N40       1.0  0.55150  0.13155  0.06651  1.0000 -0.290422824
N   N41       1.0  0.04930  0.87055  0.43526  1.0000 -0.290422824
N   N42       1.0  0.54930  0.62945  0.56474  1.0000 -0.290422824
N   N43       1.0  0.95070  0.37055  0.06474  1.0000 -0.290422824
N   N44       1.0  0.45070  0.12945  0.93526  1.0000 -0.290422824
N   N45       1.0  0.95070  0.12945  0.56474  1.0000 -0.290422824
N   N46       1.0  0.45070  0.37055  0.43526  1.0000 -0.290422824
N   N47       1.0  0.04930  0.62945  0.93526  1.0000 -0.290422824
N   N48       1.0  0.54930  0.87055  0.06474  1.0000 -0.290422824
N   N49       1.0  0.62143  0.99575  0.24308  1.0000 -0.2984535888
N   N50       1.0  0.12143  0.50425  0.75692  1.0000 -0.2984535888
N   N51       1.0  0.37857  0.49575  0.25692  1.0000 -0.2984535888
N   N52       1.0  0.87857  0.00425  0.74308  1.0000 -0.2984535888
N   N53       1.0  0.37857  0.00425  0.75692  1.0000 -0.2984535888
N   N54       1.0  0.87857  0.49575  0.24308  1.0000 -0.2984535888
N   N55       1.0  0.62143  0.50425  0.74308  1.0000 -0.2984535888
N   N56       1.0  0.12143  0.99575  0.25692  1.0000 -0.2984535888
N   N57       1.0  0.80608  0.99550  0.29851  1.0000 -0.290422824
N   N58       1.0  0.30608  0.50450  0.70149  1.0000 -0.290422824
N   N59       1.0  0.19392  0.49550  0.20149  1.0000 -0.290422824
N   N60       1.0  0.69392  0.00450  0.79851  1.0000 -0.290422824
N   N61       1.0  0.19392  0.00450  0.70149  1.0000 -0.290422824
N   N62       1.0  0.69392  0.49550  0.29851  1.0000 -0.290422824
N   N63       1.0  0.80608  0.50450  0.79851  1.0000 -0.290422824
N   N64       1.0  0.30608  0.99550  0.20149  1.0000 -0.290422824
