# DDEC6 charges by PACMAN v1.1 (https://github.com/mtap-research/PACMAN-charge/)
data_2024[Zn][crb]3[FSR]18
_chemical_formula_sum              "Zn16 H96 C96 N64"
_cell_length_a       9.63356
_cell_length_b       24.0923
_cell_length_c       24.4097
_cell_angle_alpha    90
_cell_angle_beta     90
_cell_angle_gamma    90

_symmetry_space_group_name_H-M    "P 1"
_symmetry_Int_Tables_number       1

loop_
  _symmetry_equiv_pos_as_xyz
  'x, y, z'

loop_
  _atom_site_type_symbol
  _atom_site_label
  _atom_site_symmetry_multiplicity
  _atom_site_fract_x
  _atom_site_fract_y
  _atom_site_fract_z
  _atom_site_occupancy
  _atom_site_charge
Zn  Zn1       1.0  0.01228  0.17442  0.50140  1.0000 0.6164565025
Zn  Zn2       1.0  0.51228  0.32558  0.49860  1.0000 0.6164565025
Zn  Zn3       1.0  0.98772  0.67442  0.99860  1.0000 0.6164565025
Zn  Zn4       1.0  0.48772  0.82558  0.00140  1.0000 0.6164565025
Zn  Zn5       1.0  0.98772  0.82558  0.49860  1.0000 0.6164565025
Zn  Zn6       1.0  0.48772  0.67442  0.50140  1.0000 0.6164565025
Zn  Zn7       1.0  0.01228  0.32558  0.00140  1.0000 0.6164565025
Zn  Zn8       1.0  0.51228  0.17442  0.99860  1.0000 0.6164565025
Zn  Zn9       1.0  0.00268  0.00175  0.32394  1.0000 0.6164565025
Zn  Zn10      1.0  0.50268  0.49825  0.67606  1.0000 0.6164565025
Zn  Zn11      1.0  0.99732  0.50175  0.17606  1.0000 0.6164565025
Zn  Zn12      1.0  0.49732  0.99825  0.82394  1.0000 0.6164565025
Zn  Zn13      1.0  0.99732  0.99825  0.67606  1.0000 0.6164565025
Zn  Zn14      1.0  0.49732  0.50175  0.32394  1.0000 0.6164565025
Zn  Zn15      1.0  0.00268  0.49825  0.82394  1.0000 0.6164565025
Zn  Zn16      1.0  0.50268  0.00175  0.17606  1.0000 0.6164565025
H   H1        1.0  0.75480  0.33710  0.40880  1.0000 0.1059187775
H   H2        1.0  0.25480  0.16290  0.59120  1.0000 0.1059187775
H   H3        1.0  0.24520  0.83710  0.09120  1.0000 0.1059187775
H   H4        1.0  0.74520  0.66290  0.90880  1.0000 0.1059187775
H   H5        1.0  0.24520  0.66290  0.59120  1.0000 0.1059187775
H   H6        1.0  0.74520  0.83710  0.40880  1.0000 0.1059187775
H   H7        1.0  0.75480  0.16290  0.90880  1.0000 0.1059187775
H   H8        1.0  0.25480  0.33710  0.09120  1.0000 0.1059187775
H   H9        1.0  0.49030  0.94590  0.29340  1.0000 0.1059187775
H   H10       1.0  0.99030  0.55410  0.70660  1.0000 0.1059187775
H   H11       1.0  0.50970  0.44590  0.20660  1.0000 0.1059187775
H   H12       1.0  0.00970  0.05410  0.79340  1.0000 0.1059187775
H   H13       1.0  0.50970  0.05410  0.70660  1.0000 0.1059187775
H   H14       1.0  0.00970  0.44590  0.29340  1.0000 0.1059187775
H   H15       1.0  0.49030  0.55410  0.79340  1.0000 0.1059187775
H   H16       1.0  0.99030  0.94590  0.20660  1.0000 0.1059187775
H   H17       1.0  0.96300  0.05190  0.44430  1.0000 0.0788853864
H   H18       1.0  0.46300  0.44810  0.55570  1.0000 0.0788853864
H   H19       1.0  0.03700  0.55190  0.05570  1.0000 0.0788853864
H   H20       1.0  0.53700  0.94810  0.94430  1.0000 0.0788853864
H   H21       1.0  0.03700  0.94810  0.55570  1.0000 0.0788853864
H   H22       1.0  0.53700  0.55190  0.44430  1.0000 0.0788853864
H   H23       1.0  0.96300  0.44810  0.94430  1.0000 0.0788853864
H   H24       1.0  0.46300  0.05190  0.05570  1.0000 0.0788853864
H   H25       1.0  0.20400  0.81950  0.39850  1.0000 0.0989123391
H   H26       1.0  0.70400  0.68050  0.60150  1.0000 0.0989123391
H   H27       1.0  0.79600  0.31950  0.10150  1.0000 0.0989123391
H   H28       1.0  0.29600  0.18050  0.89850  1.0000 0.0989123391
H   H29       1.0  0.79600  0.18050  0.60150  1.0000 0.0989123391
H   H30       1.0  0.29600  0.31950  0.39850  1.0000 0.0989123391
H   H31       1.0  0.20400  0.68050  0.89850  1.0000 0.0989123391
H   H32       1.0  0.70400  0.81950  0.10150  1.0000 0.0989123391
H   H33       1.0  0.14000  0.12110  0.30480  1.0000 0.1059187775
H   H34       1.0  0.64000  0.37890  0.69520  1.0000 0.1059187775
H   H35       1.0  0.86000  0.62110  0.19520  1.0000 0.1059187775
H   H36       1.0  0.36000  0.87890  0.80480  1.0000 0.1059187775
H   H37       1.0  0.86000  0.87890  0.69520  1.0000 0.1059187775
H   H38       1.0  0.36000  0.62110  0.30480  1.0000 0.1059187775
H   H39       1.0  0.14000  0.37890  0.80480  1.0000 0.1059187775
H   H40       1.0  0.64000  0.12110  0.19520  1.0000 0.1059187775
H   H41       1.0  0.14600  0.19730  0.38970  1.0000 0.0989123391
H   H42       1.0  0.64600  0.30270  0.61030  1.0000 0.0989123391
H   H43       1.0  0.85400  0.69730  0.11030  1.0000 0.0989123391
H   H44       1.0  0.35400  0.80270  0.88970  1.0000 0.0989123391
H   H45       1.0  0.85400  0.80270  0.61030  1.0000 0.0989123391
H   H46       1.0  0.35400  0.69730  0.38970  1.0000 0.0989123391
H   H47       1.0  0.14600  0.30270  0.88970  1.0000 0.0989123391
H   H48       1.0  0.64600  0.19730  0.11030  1.0000 0.0989123391
H   H49       1.0  0.91990  0.94180  0.43970  1.0000 0.0788853864
H   H50       1.0  0.41990  0.55820  0.56030  1.0000 0.0788853864
H   H51       1.0  0.08010  0.44180  0.06030  1.0000 0.0788853864
H   H52       1.0  0.58010  0.05820  0.93970  1.0000 0.0788853864
H   H53       1.0  0.08010  0.05820  0.56030  1.0000 0.0788853864
H   H54       1.0  0.58010  0.44180  0.43970  1.0000 0.0788853864
H   H55       1.0  0.91990  0.55820  0.93970  1.0000 0.0788853864
H   H56       1.0  0.41990  0.94180  0.06030  1.0000 0.0788853864
H   H57       1.0  0.19800  0.89700  0.31810  1.0000 0.1059187775
H   H58       1.0  0.69800  0.60300  0.68190  1.0000 0.1059187775
H   H59       1.0  0.80200  0.39700  0.18190  1.0000 0.1059187775
H   H60       1.0  0.30200  0.10300  0.81810  1.0000 0.1059187775
H   H61       1.0  0.80200  0.10300  0.68190  1.0000 0.1059187775
H   H62       1.0  0.30200  0.39700  0.31810  1.0000 0.1059187775
H   H63       1.0  0.19800  0.60300  0.81810  1.0000 0.1059187775
H   H64       1.0  0.69800  0.89700  0.18190  1.0000 0.1059187775
H   H65       1.0  0.71350  0.22580  0.53810  1.0000 0.0550202181
H   H66       1.0  0.21350  0.27420  0.46190  1.0000 0.0550202181
H   H67       1.0  0.28650  0.72580  0.96190  1.0000 0.0550202181
H   H68       1.0  0.78650  0.77420  0.03810  1.0000 0.0550202181
H   H69       1.0  0.28650  0.77420  0.46190  1.0000 0.0550202181
H   H70       1.0  0.78650  0.72580  0.53810  1.0000 0.0550202181
H   H71       1.0  0.71350  0.27420  0.03810  1.0000 0.0550202181
H   H72       1.0  0.21350  0.22580  0.96190  1.0000 0.0550202181
H   H73       1.0  0.98500  0.27040  0.41170  1.0000 0.0925652174
H   H74       1.0  0.48500  0.22960  0.58830  1.0000 0.0925652174
H   H75       1.0  0.01500  0.77040  0.08830  1.0000 0.0925652174
H   H76       1.0  0.51500  0.72960  0.91170  1.0000 0.0925652174
H   H77       1.0  0.01500  0.72960  0.58830  1.0000 0.0925652174
H   H78       1.0  0.51500  0.77040  0.41170  1.0000 0.0925652174
H   H79       1.0  0.98500  0.22960  0.91170  1.0000 0.0925652174
H   H80       1.0  0.48500  0.27040  0.08830  1.0000 0.0925652174
H   H81       1.0  0.71590  0.94890  0.36330  1.0000 0.0989123391
H   H82       1.0  0.21590  0.55110  0.63670  1.0000 0.0989123391
H   H83       1.0  0.28410  0.44890  0.13670  1.0000 0.0989123391
H   H84       1.0  0.78410  0.05110  0.86330  1.0000 0.0989123391
H   H85       1.0  0.28410  0.05110  0.63670  1.0000 0.0989123391
H   H86       1.0  0.78410  0.44890  0.36330  1.0000 0.0989123391
H   H87       1.0  0.71590  0.55110  0.86330  1.0000 0.0989123391
H   H88       1.0  0.21590  0.94890  0.13670  1.0000 0.0989123391
H   H89       1.0  0.80700  0.03760  0.22160  1.0000 0.0788853864
H   H90       1.0  0.30700  0.46240  0.77840  1.0000 0.0788853864
H   H91       1.0  0.19300  0.53760  0.27840  1.0000 0.0788853864
H   H92       1.0  0.69300  0.96240  0.72160  1.0000 0.0788853864
H   H93       1.0  0.19300  0.96240  0.77840  1.0000 0.0788853864
H   H94       1.0  0.69300  0.53760  0.22160  1.0000 0.0788853864
H   H95       1.0  0.80700  0.46240  0.72160  1.0000 0.0788853864
H   H96       1.0  0.30700  0.03760  0.27840  1.0000 0.0788853864
C   C1        1.0  0.78048  0.30480  0.43655  1.0000 -0.0623505898
C   C2        1.0  0.28048  0.19520  0.56345  1.0000 -0.0623505898
C   C3        1.0  0.21952  0.80480  0.06345  1.0000 -0.0623505898
C   C4        1.0  0.71952  0.69520  0.93655  1.0000 -0.0623505898
C   C5        1.0  0.21952  0.69520  0.56345  1.0000 -0.0623505898
C   C6        1.0  0.71952  0.80480  0.43655  1.0000 -0.0623505898
C   C7        1.0  0.78048  0.19520  0.93655  1.0000 -0.0623505898
C   C8        1.0  0.28048  0.30480  0.06345  1.0000 -0.0623505898
C   C9        1.0  0.58857  0.96600  0.28956  1.0000 -0.0702034609
C   C10       1.0  0.08857  0.53400  0.71044  1.0000 -0.0702034609
C   C11       1.0  0.41143  0.46600  0.21044  1.0000 -0.0702034609
C   C12       1.0  0.91143  0.03400  0.78956  1.0000 -0.0702034609
C   C13       1.0  0.41143  0.03400  0.71044  1.0000 -0.0702034609
C   C14       1.0  0.91143  0.46600  0.28956  1.0000 -0.0702034609
C   C15       1.0  0.58857  0.53400  0.78956  1.0000 -0.0702034609
C   C16       1.0  0.08857  0.96600  0.21044  1.0000 -0.0702034609
C   C17       1.0  0.01493  0.08043  0.41800  1.0000 0.1303545147
C   C18       1.0  0.51493  0.41957  0.58200  1.0000 0.1303545147
C   C19       1.0  0.98507  0.58043  0.08200  1.0000 0.1303545147
C   C20       1.0  0.48507  0.91957  0.91800  1.0000 0.1303545147
C   C21       1.0  0.98507  0.91957  0.58200  1.0000 0.1303545147
C   C22       1.0  0.48507  0.58043  0.41800  1.0000 0.1303545147
C   C23       1.0  0.01493  0.41957  0.91800  1.0000 0.1303545147
C   C24       1.0  0.51493  0.08043  0.08200  1.0000 0.1303545147
C   C25       1.0  0.14330  0.85561  0.39556  1.0000 -0.0761257099
C   C26       1.0  0.64330  0.64439  0.60444  1.0000 -0.0761257099
C   C27       1.0  0.85670  0.35561  0.10444  1.0000 -0.0761257099
C   C28       1.0  0.35670  0.14439  0.89556  1.0000 -0.0761257099
C   C29       1.0  0.85670  0.14439  0.60444  1.0000 -0.0761257099
C   C30       1.0  0.35670  0.35561  0.39556  1.0000 -0.0761257099
C   C31       1.0  0.14330  0.64439  0.89556  1.0000 -0.0761257099
C   C32       1.0  0.64330  0.85561  0.10444  1.0000 -0.0761257099
C   C33       1.0  0.10543  0.11765  0.34611  1.0000 -0.0702034609
C   C34       1.0  0.60543  0.38235  0.65389  1.0000 -0.0702034609
C   C35       1.0  0.89457  0.61765  0.15389  1.0000 -0.0702034609
C   C36       1.0  0.39457  0.88235  0.84611  1.0000 -0.0702034609
C   C37       1.0  0.89457  0.88235  0.65389  1.0000 -0.0702034609
C   C38       1.0  0.39457  0.61765  0.34611  1.0000 -0.0702034609
C   C39       1.0  0.10543  0.38235  0.84611  1.0000 -0.0702034609
C   C40       1.0  0.60543  0.11765  0.15389  1.0000 -0.0702034609
C   C41       1.0  0.10922  0.15531  0.38792  1.0000 -0.0623505898
C   C42       1.0  0.60922  0.34469  0.61208  1.0000 -0.0623505898
C   C43       1.0  0.89078  0.65531  0.11208  1.0000 -0.0623505898
C   C44       1.0  0.39078  0.84469  0.88792  1.0000 -0.0623505898
C   C45       1.0  0.89078  0.84469  0.61208  1.0000 -0.0623505898
C   C46       1.0  0.39078  0.65531  0.38792  1.0000 -0.0623505898
C   C47       1.0  0.10922  0.34469  0.88792  1.0000 -0.0623505898
C   C48       1.0  0.60922  0.15531  0.11208  1.0000 -0.0623505898
C   C49       1.0  0.99545  0.91857  0.41783  1.0000 0.1178328109
C   C50       1.0  0.49545  0.58143  0.58217  1.0000 0.1178328109
C   C51       1.0  0.00455  0.41857  0.08217  1.0000 0.1178328109
C   C52       1.0  0.50455  0.08143  0.91783  1.0000 0.1178328109
C   C53       1.0  0.00455  0.08143  0.58217  1.0000 0.1178328109
C   C54       1.0  0.50455  0.41857  0.41783  1.0000 0.1178328109
C   C55       1.0  0.99545  0.58143  0.91783  1.0000 0.1178328109
C   C56       1.0  0.49545  0.91857  0.08217  1.0000 0.1178328109
C   C57       1.0  0.14188  0.89519  0.35535  1.0000 -0.0623505898
C   C58       1.0  0.64188  0.60481  0.64465  1.0000 -0.0623505898
C   C59       1.0  0.85812  0.39519  0.14465  1.0000 -0.0623505898
C   C60       1.0  0.35812  0.10481  0.85535  1.0000 -0.0623505898
C   C61       1.0  0.85812  0.10481  0.64465  1.0000 -0.0623505898
C   C62       1.0  0.35812  0.39519  0.35535  1.0000 -0.0623505898
C   C63       1.0  0.14188  0.60481  0.85535  1.0000 -0.0623505898
C   C64       1.0  0.64188  0.89519  0.14465  1.0000 -0.0623505898
C   C65       1.0  0.75586  0.24740  0.50263  1.0000 0.143425831
C   C66       1.0  0.25586  0.25260  0.49737  1.0000 0.143425831
C   C67       1.0  0.24414  0.74740  0.99737  1.0000 0.143425831
C   C68       1.0  0.74414  0.75260  0.00263  1.0000 0.143425831
C   C69       1.0  0.24414  0.75260  0.49737  1.0000 0.143425831
C   C70       1.0  0.74414  0.74740  0.50263  1.0000 0.143425831
C   C71       1.0  0.75586  0.25260  0.00263  1.0000 0.143425831
C   C72       1.0  0.25586  0.24740  0.99737  1.0000 0.143425831
C   C73       1.0  0.89493  0.27102  0.43823  1.0000 -0.0702034609
C   C74       1.0  0.39493  0.22898  0.56177  1.0000 -0.0702034609
C   C75       1.0  0.10507  0.77102  0.06177  1.0000 -0.0702034609
C   C76       1.0  0.60507  0.72898  0.93823  1.0000 -0.0702034609
C   C77       1.0  0.10507  0.72898  0.56177  1.0000 -0.0702034609
C   C78       1.0  0.60507  0.77102  0.43823  1.0000 -0.0702034609
C   C79       1.0  0.89493  0.22898  0.93823  1.0000 -0.0702034609
C   C80       1.0  0.39493  0.27102  0.06177  1.0000 -0.0702034609
C   C81       1.0  0.70157  0.96610  0.32350  1.0000 -0.0702034609
C   C82       1.0  0.20157  0.53390  0.67650  1.0000 -0.0702034609
C   C83       1.0  0.29843  0.46610  0.17650  1.0000 -0.0702034609
C   C84       1.0  0.79843  0.03390  0.82350  1.0000 -0.0702034609
C   C85       1.0  0.29843  0.03390  0.67650  1.0000 -0.0702034609
C   C86       1.0  0.79843  0.46610  0.32350  1.0000 -0.0702034609
C   C87       1.0  0.70157  0.53390  0.82350  1.0000 -0.0702034609
C   C88       1.0  0.20157  0.96610  0.17650  1.0000 -0.0702034609
C   C89       1.0  0.75240  0.01237  0.25078  1.0000 0.1303545147
C   C90       1.0  0.25240  0.48763  0.74922  1.0000 0.1303545147
C   C91       1.0  0.24760  0.51237  0.24922  1.0000 0.1303545147
C   C92       1.0  0.74760  0.98763  0.75078  1.0000 0.1303545147
C   C93       1.0  0.24760  0.98763  0.74922  1.0000 0.1303545147
C   C94       1.0  0.74760  0.51237  0.25078  1.0000 0.1303545147
C   C95       1.0  0.75240  0.48763  0.75078  1.0000 0.1303545147
C   C96       1.0  0.25240  0.01237  0.24922  1.0000 0.1303545147
N   N1        1.0  0.04545  0.06990  0.36560  1.0000 -0.298074803
N   N2        1.0  0.54545  0.43010  0.63440  1.0000 -0.298074803
N   N3        1.0  0.95455  0.56990  0.13440  1.0000 -0.298074803
N   N4        1.0  0.45455  0.93010  0.86560  1.0000 -0.298074803
N   N5        1.0  0.95455  0.93010  0.63440  1.0000 -0.298074803
N   N6        1.0  0.45455  0.56990  0.36560  1.0000 -0.298074803
N   N7        1.0  0.04545  0.43010  0.86560  1.0000 -0.298074803
N   N8        1.0  0.54545  0.06990  0.13440  1.0000 -0.298074803
N   N9        1.0  0.87851  0.23460  0.48072  1.0000 -0.2882097532
N   N10       1.0  0.37851  0.26540  0.51928  1.0000 -0.2882097532
N   N11       1.0  0.12149  0.73460  0.01928  1.0000 -0.2882097532
N   N12       1.0  0.62149  0.76540  0.98072  1.0000 -0.2882097532
N   N13       1.0  0.12149  0.76540  0.51928  1.0000 -0.2882097532
N   N14       1.0  0.62149  0.73460  0.48072  1.0000 -0.2882097532
N   N15       1.0  0.87851  0.26540  0.98072  1.0000 -0.2882097532
N   N16       1.0  0.37851  0.23460  0.01928  1.0000 -0.2882097532
N   N17       1.0  0.69241  0.28966  0.47778  1.0000 -0.2882097532
N   N18       1.0  0.19241  0.21034  0.52222  1.0000 -0.2882097532
N   N19       1.0  0.30759  0.78966  0.02222  1.0000 -0.2882097532
N   N20       1.0  0.80759  0.71034  0.97778  1.0000 -0.2882097532
N   N21       1.0  0.30759  0.71034  0.52222  1.0000 -0.2882097532
N   N22       1.0  0.80759  0.78966  0.47778  1.0000 -0.2882097532
N   N23       1.0  0.69241  0.21034  0.97778  1.0000 -0.2882097532
N   N24       1.0  0.19241  0.28966  0.02222  1.0000 -0.2882097532
N   N25       1.0  0.04723  0.93511  0.36969  1.0000 -0.2882097532
N   N26       1.0  0.54723  0.56489  0.63031  1.0000 -0.2882097532
N   N27       1.0  0.95277  0.43511  0.13031  1.0000 -0.2882097532
N   N28       1.0  0.45277  0.06489  0.86969  1.0000 -0.2882097532
N   N29       1.0  0.95277  0.06489  0.63031  1.0000 -0.2882097532
N   N30       1.0  0.45277  0.43511  0.36969  1.0000 -0.2882097532
N   N31       1.0  0.04723  0.56489  0.86969  1.0000 -0.2882097532
N   N32       1.0  0.54723  0.93511  0.13031  1.0000 -0.2882097532
N   N33       1.0  0.05135  0.13149  0.43333  1.0000 -0.2882097532
N   N34       1.0  0.55135  0.36851  0.56667  1.0000 -0.2882097532
N   N35       1.0  0.94865  0.63149  0.06667  1.0000 -0.2882097532
N   N36       1.0  0.44865  0.86851  0.93333  1.0000 -0.2882097532
N   N37       1.0  0.94865  0.86851  0.56667  1.0000 -0.2882097532
N   N38       1.0  0.44865  0.63149  0.43333  1.0000 -0.2882097532
N   N39       1.0  0.05135  0.36851  0.93333  1.0000 -0.2882097532
N   N40       1.0  0.55135  0.13149  0.06667  1.0000 -0.2882097532
N   N41       1.0  0.04936  0.87055  0.43519  1.0000 -0.2882097532
N   N42       1.0  0.54936  0.62945  0.56481  1.0000 -0.2882097532
N   N43       1.0  0.95064  0.37055  0.06481  1.0000 -0.2882097532
N   N44       1.0  0.45064  0.12945  0.93519  1.0000 -0.2882097532
N   N45       1.0  0.95064  0.12945  0.56481  1.0000 -0.2882097532
N   N46       1.0  0.45064  0.37055  0.43519  1.0000 -0.2882097532
N   N47       1.0  0.04936  0.62945  0.93519  1.0000 -0.2882097532
N   N48       1.0  0.54936  0.87055  0.06481  1.0000 -0.2882097532
N   N49       1.0  0.62164  0.99573  0.24320  1.0000 -0.2882097532
N   N50       1.0  0.12164  0.50427  0.75680  1.0000 -0.2882097532
N   N51       1.0  0.37836  0.49573  0.25680  1.0000 -0.2882097532
N   N52       1.0  0.87836  0.00427  0.74320  1.0000 -0.2882097532
N   N53       1.0  0.37836  0.00427  0.75680  1.0000 -0.2882097532
N   N54       1.0  0.87836  0.49573  0.24320  1.0000 -0.2882097532
N   N55       1.0  0.62164  0.50427  0.74320  1.0000 -0.2882097532
N   N56       1.0  0.12164  0.99573  0.25680  1.0000 -0.2882097532
N   N57       1.0  0.80577  0.99557  0.29853  1.0000 -0.2882097532
N   N58       1.0  0.30577  0.50443  0.70147  1.0000 -0.2882097532
N   N59       1.0  0.19423  0.49557  0.20147  1.0000 -0.2882097532
N   N60       1.0  0.69423  0.00443  0.79853  1.0000 -0.2882097532
N   N61       1.0  0.19423  0.00443  0.70147  1.0000 -0.2882097532
N   N62       1.0  0.69423  0.49557  0.29853  1.0000 -0.2882097532
N   N63       1.0  0.80577  0.50443  0.79853  1.0000 -0.2882097532
N   N64       1.0  0.30577  0.99557  0.20147  1.0000 -0.2882097532
