# DDEC6 charges by PACMAN v1.1 (https://github.com/mtap-research/PACMAN-charge/)
data_2024[Zn][crb]3[ASR]24
_chemical_formula_sum              "Zn16 H96 C96 N64"
_cell_length_a       9.63356
_cell_length_b       24.0923
_cell_length_c       24.4097
_cell_angle_alpha    90
_cell_angle_beta     90
_cell_angle_gamma    90

_symmetry_space_group_name_H-M    "P 1"
_symmetry_Int_Tables_number       1

loop_
  _symmetry_equiv_pos_as_xyz
  'x, y, z'

loop_
  _atom_site_type_symbol
  _atom_site_label
  _atom_site_symmetry_multiplicity
  _atom_site_fract_x
  _atom_site_fract_y
  _atom_site_fract_z
  _atom_site_occupancy
  _atom_site_charge
Zn  Zn1       1.0  0.01228  0.17442  0.50141  1.0000 0.6194221833
Zn  Zn2       1.0  0.51228  0.32558  0.49859  1.0000 0.6194221833
Zn  Zn3       1.0  0.98772  0.67442  0.99859  1.0000 0.6194221833
Zn  Zn4       1.0  0.48772  0.82558  0.00141  1.0000 0.6194221833
Zn  Zn5       1.0  0.98772  0.82558  0.49859  1.0000 0.6194221833
Zn  Zn6       1.0  0.48772  0.67442  0.50141  1.0000 0.6194221833
Zn  Zn7       1.0  0.01228  0.32558  0.00141  1.0000 0.6194221833
Zn  Zn8       1.0  0.51228  0.17442  0.99859  1.0000 0.6194221833
Zn  Zn9       1.0  0.00268  0.00175  0.32394  1.0000 0.6194221833
Zn  Zn10      1.0  0.50268  0.49825  0.67606  1.0000 0.6194221833
Zn  Zn11      1.0  0.99732  0.50175  0.17606  1.0000 0.6194221833
Zn  Zn12      1.0  0.49732  0.99825  0.82394  1.0000 0.6194221833
Zn  Zn13      1.0  0.99732  0.99825  0.67606  1.0000 0.6194221833
Zn  Zn14      1.0  0.49732  0.50175  0.32394  1.0000 0.6194221833
Zn  Zn15      1.0  0.00268  0.49825  0.82394  1.0000 0.6194221833
Zn  Zn16      1.0  0.50268  0.00175  0.17606  1.0000 0.6194221833
H   H1        1.0  0.75580  0.33770  0.40840  1.0000 0.0998897757
H   H2        1.0  0.25580  0.16230  0.59160  1.0000 0.0998897757
H   H3        1.0  0.24420  0.83770  0.09160  1.0000 0.0998897757
H   H4        1.0  0.74420  0.66230  0.90840  1.0000 0.0998897757
H   H5        1.0  0.24420  0.66230  0.59160  1.0000 0.0998897757
H   H6        1.0  0.74420  0.83770  0.40840  1.0000 0.0998897757
H   H7        1.0  0.75580  0.16230  0.90840  1.0000 0.0998897757
H   H8        1.0  0.25580  0.33770  0.09160  1.0000 0.0998897757
H   H9        1.0  0.48910  0.94580  0.29420  1.0000 0.0998897757
H   H10       1.0  0.98910  0.55420  0.70580  1.0000 0.0998897757
H   H11       1.0  0.51090  0.44580  0.20580  1.0000 0.0998897757
H   H12       1.0  0.01090  0.05420  0.79420  1.0000 0.0998897757
H   H13       1.0  0.51090  0.05420  0.70580  1.0000 0.0998897757
H   H14       1.0  0.01090  0.44580  0.29420  1.0000 0.0998897757
H   H15       1.0  0.48910  0.55420  0.79420  1.0000 0.0998897757
H   H16       1.0  0.98910  0.94580  0.20580  1.0000 0.0998897757
H   H17       1.0  0.96130  0.05170  0.44470  1.0000 0.0715122604
H   H18       1.0  0.46130  0.44830  0.55530  1.0000 0.0715122604
H   H19       1.0  0.03870  0.55170  0.05530  1.0000 0.0715122604
H   H20       1.0  0.53870  0.94830  0.94470  1.0000 0.0715122604
H   H21       1.0  0.03870  0.94830  0.55530  1.0000 0.0715122604
H   H22       1.0  0.53870  0.55170  0.44470  1.0000 0.0715122604
H   H23       1.0  0.96130  0.44830  0.94470  1.0000 0.0715122604
H   H24       1.0  0.46130  0.05170  0.05530  1.0000 0.0715122604
H   H25       1.0  0.20600  0.81890  0.39790  1.0000 0.0998897757
H   H26       1.0  0.70600  0.68110  0.60210  1.0000 0.0998897757
H   H27       1.0  0.79400  0.31890  0.10210  1.0000 0.0998897757
H   H28       1.0  0.29400  0.18110  0.89790  1.0000 0.0998897757
H   H29       1.0  0.79400  0.18110  0.60210  1.0000 0.0998897757
H   H30       1.0  0.29400  0.31890  0.39790  1.0000 0.0998897757
H   H31       1.0  0.20600  0.68110  0.89790  1.0000 0.0998897757
H   H32       1.0  0.70600  0.81890  0.10210  1.0000 0.0998897757
H   H33       1.0  0.14100  0.12170  0.30410  1.0000 0.0998897757
H   H34       1.0  0.64100  0.37830  0.69590  1.0000 0.0998897757
H   H35       1.0  0.85900  0.62170  0.19590  1.0000 0.0998897757
H   H36       1.0  0.35900  0.87830  0.80410  1.0000 0.0998897757
H   H37       1.0  0.85900  0.87830  0.69590  1.0000 0.0998897757
H   H38       1.0  0.35900  0.62170  0.30410  1.0000 0.0998897757
H   H39       1.0  0.14100  0.37830  0.80410  1.0000 0.0998897757
H   H40       1.0  0.64100  0.12170  0.19590  1.0000 0.0998897757
H   H41       1.0  0.14700  0.19730  0.38970  1.0000 0.0998897757
H   H42       1.0  0.64700  0.30270  0.61030  1.0000 0.0998897757
H   H43       1.0  0.85300  0.69730  0.11030  1.0000 0.0998897757
H   H44       1.0  0.35300  0.80270  0.88970  1.0000 0.0998897757
H   H45       1.0  0.85300  0.80270  0.61030  1.0000 0.0998897757
H   H46       1.0  0.35300  0.69730  0.38970  1.0000 0.0998897757
H   H47       1.0  0.14700  0.30270  0.88970  1.0000 0.0998897757
H   H48       1.0  0.64700  0.19730  0.11030  1.0000 0.0998897757
H   H49       1.0  0.91890  0.94220  0.44020  1.0000 0.0715122604
H   H50       1.0  0.41890  0.55780  0.55980  1.0000 0.0715122604
H   H51       1.0  0.08110  0.44220  0.05980  1.0000 0.0715122604
H   H52       1.0  0.58110  0.05780  0.94020  1.0000 0.0715122604
H   H53       1.0  0.08110  0.05780  0.55980  1.0000 0.0715122604
H   H54       1.0  0.58110  0.44220  0.44020  1.0000 0.0715122604
H   H55       1.0  0.91890  0.55780  0.94020  1.0000 0.0715122604
H   H56       1.0  0.41890  0.94220  0.05980  1.0000 0.0715122604
H   H57       1.0  0.19800  0.89690  0.31770  1.0000 0.1064843916
H   H58       1.0  0.69800  0.60310  0.68230  1.0000 0.1064843916
H   H59       1.0  0.80200  0.39690  0.18230  1.0000 0.1064843916
H   H60       1.0  0.30200  0.10310  0.81770  1.0000 0.1064843916
H   H61       1.0  0.80200  0.10310  0.68230  1.0000 0.1064843916
H   H62       1.0  0.30200  0.39690  0.31770  1.0000 0.1064843916
H   H63       1.0  0.19800  0.60310  0.81770  1.0000 0.1064843916
H   H64       1.0  0.69800  0.89690  0.18230  1.0000 0.1064843916
H   H65       1.0  0.71310  0.22530  0.53870  1.0000 0.0440840855
H   H66       1.0  0.21310  0.27470  0.46130  1.0000 0.0440840855
H   H67       1.0  0.28690  0.72530  0.96130  1.0000 0.0440840855
H   H68       1.0  0.78690  0.77470  0.03870  1.0000 0.0440840855
H   H69       1.0  0.28690  0.77470  0.46130  1.0000 0.0440840855
H   H70       1.0  0.78690  0.72530  0.53870  1.0000 0.0440840855
H   H71       1.0  0.71310  0.27470  0.03870  1.0000 0.0440840855
H   H72       1.0  0.21310  0.22530  0.96130  1.0000 0.0440840855
H   H73       1.0  0.98630  0.27120  0.41140  1.0000 0.0888770082
H   H74       1.0  0.48630  0.22880  0.58860  1.0000 0.0888770082
H   H75       1.0  0.01370  0.77120  0.08860  1.0000 0.0888770082
H   H76       1.0  0.51370  0.72880  0.91140  1.0000 0.0888770082
H   H77       1.0  0.01370  0.72880  0.58860  1.0000 0.0888770082
H   H78       1.0  0.51370  0.77120  0.41140  1.0000 0.0888770082
H   H79       1.0  0.98630  0.22880  0.91140  1.0000 0.0888770082
H   H80       1.0  0.48630  0.27120  0.08860  1.0000 0.0888770082
H   H81       1.0  0.71660  0.94880  0.36340  1.0000 0.0998897757
H   H82       1.0  0.21660  0.55120  0.63660  1.0000 0.0998897757
H   H83       1.0  0.28340  0.44880  0.13660  1.0000 0.0998897757
H   H84       1.0  0.78340  0.05120  0.86340  1.0000 0.0998897757
H   H85       1.0  0.28340  0.05120  0.63660  1.0000 0.0998897757
H   H86       1.0  0.78340  0.44880  0.36340  1.0000 0.0998897757
H   H87       1.0  0.71660  0.55120  0.86340  1.0000 0.0998897757
H   H88       1.0  0.21660  0.94880  0.13660  1.0000 0.0998897757
H   H89       1.0  0.80760  0.03820  0.22150  1.0000 0.076987029
H   H90       1.0  0.30760  0.46180  0.77850  1.0000 0.076987029
H   H91       1.0  0.19240  0.53820  0.27850  1.0000 0.076987029
H   H92       1.0  0.69240  0.96180  0.72150  1.0000 0.076987029
H   H93       1.0  0.19240  0.96180  0.77850  1.0000 0.076987029
H   H94       1.0  0.69240  0.53820  0.22150  1.0000 0.076987029
H   H95       1.0  0.80760  0.46180  0.72150  1.0000 0.076987029
H   H96       1.0  0.30760  0.03820  0.27850  1.0000 0.076987029
C   C1        1.0  0.78045  0.30485  0.43651  1.0000 -0.0616975176
C   C2        1.0  0.28045  0.19515  0.56349  1.0000 -0.0616975176
C   C3        1.0  0.21955  0.80485  0.06349  1.0000 -0.0616975176
C   C4        1.0  0.71955  0.69515  0.93651  1.0000 -0.0616975176
C   C5        1.0  0.21955  0.69515  0.56349  1.0000 -0.0616975176
C   C6        1.0  0.71955  0.80485  0.43651  1.0000 -0.0616975176
C   C7        1.0  0.78045  0.19515  0.93651  1.0000 -0.0616975176
C   C8        1.0  0.28045  0.30485  0.06349  1.0000 -0.0616975176
C   C9        1.0  0.58840  0.96599  0.28955  1.0000 -0.0683979216
C   C10       1.0  0.08840  0.53401  0.71045  1.0000 -0.0683979216
C   C11       1.0  0.41160  0.46599  0.21045  1.0000 -0.0683979216
C   C12       1.0  0.91160  0.03401  0.78955  1.0000 -0.0683979216
C   C13       1.0  0.41160  0.03401  0.71045  1.0000 -0.0683979216
C   C14       1.0  0.91160  0.46599  0.28955  1.0000 -0.0683979216
C   C15       1.0  0.58840  0.53401  0.78955  1.0000 -0.0683979216
C   C16       1.0  0.08840  0.96599  0.21045  1.0000 -0.0683979216
C   C17       1.0  0.01490  0.08038  0.41803  1.0000 0.1332519584
C   C18       1.0  0.51490  0.41962  0.58197  1.0000 0.1332519584
C   C19       1.0  0.98510  0.58038  0.08197  1.0000 0.1332519584
C   C20       1.0  0.48510  0.91962  0.91803  1.0000 0.1332519584
C   C21       1.0  0.98510  0.91962  0.58197  1.0000 0.1332519584
C   C22       1.0  0.48510  0.58038  0.41803  1.0000 0.1332519584
C   C23       1.0  0.01490  0.41962  0.91803  1.0000 0.1332519584
C   C24       1.0  0.51490  0.08038  0.08197  1.0000 0.1332519584
C   C25       1.0  0.14338  0.85556  0.39558  1.0000 -0.0683979216
C   C26       1.0  0.64338  0.64444  0.60442  1.0000 -0.0683979216
C   C27       1.0  0.85662  0.35556  0.10442  1.0000 -0.0683979216
C   C28       1.0  0.35662  0.14444  0.89558  1.0000 -0.0683979216
C   C29       1.0  0.85662  0.14444  0.60442  1.0000 -0.0683979216
C   C30       1.0  0.35662  0.35556  0.39558  1.0000 -0.0683979216
C   C31       1.0  0.14338  0.64444  0.89558  1.0000 -0.0683979216
C   C32       1.0  0.64338  0.85556  0.10442  1.0000 -0.0683979216
C   C33       1.0  0.10546  0.11766  0.34603  1.0000 -0.0616975176
C   C34       1.0  0.60546  0.38234  0.65397  1.0000 -0.0616975176
C   C35       1.0  0.89454  0.61766  0.15397  1.0000 -0.0616975176
C   C36       1.0  0.39454  0.88234  0.84603  1.0000 -0.0616975176
C   C37       1.0  0.89454  0.88234  0.65397  1.0000 -0.0616975176
C   C38       1.0  0.39454  0.61766  0.34603  1.0000 -0.0616975176
C   C39       1.0  0.10546  0.38234  0.84603  1.0000 -0.0616975176
C   C40       1.0  0.60546  0.11766  0.15397  1.0000 -0.0616975176
C   C41       1.0  0.10928  0.15537  0.38790  1.0000 -0.0683979216
C   C42       1.0  0.60928  0.34463  0.61210  1.0000 -0.0683979216
C   C43       1.0  0.89072  0.65537  0.11210  1.0000 -0.0683979216
C   C44       1.0  0.39072  0.84463  0.88790  1.0000 -0.0683979216
C   C45       1.0  0.89072  0.84463  0.61210  1.0000 -0.0683979216
C   C46       1.0  0.39072  0.65537  0.38790  1.0000 -0.0683979216
C   C47       1.0  0.10928  0.34463  0.88790  1.0000 -0.0683979216
C   C48       1.0  0.60928  0.15537  0.11210  1.0000 -0.0683979216
C   C49       1.0  0.99539  0.91860  0.41785  1.0000 0.1214404822
C   C50       1.0  0.49539  0.58140  0.58215  1.0000 0.1214404822
C   C51       1.0  0.00461  0.41860  0.08215  1.0000 0.1214404822
C   C52       1.0  0.50461  0.08140  0.91785  1.0000 0.1214404822
C   C53       1.0  0.00461  0.08140  0.58215  1.0000 0.1214404822
C   C54       1.0  0.50461  0.41860  0.41785  1.0000 0.1214404822
C   C55       1.0  0.99539  0.58140  0.91785  1.0000 0.1214404822
C   C56       1.0  0.49539  0.91860  0.08215  1.0000 0.1214404822
C   C57       1.0  0.14197  0.89520  0.35532  1.0000 -0.0616975176
C   C58       1.0  0.64197  0.60480  0.64468  1.0000 -0.0616975176
C   C59       1.0  0.85803  0.39520  0.14468  1.0000 -0.0616975176
C   C60       1.0  0.35803  0.10480  0.85532  1.0000 -0.0616975176
C   C61       1.0  0.85803  0.10480  0.64468  1.0000 -0.0616975176
C   C62       1.0  0.35803  0.39520  0.35532  1.0000 -0.0616975176
C   C63       1.0  0.14197  0.60480  0.85532  1.0000 -0.0616975176
C   C64       1.0  0.64197  0.89520  0.14468  1.0000 -0.0616975176
C   C65       1.0  0.75578  0.24736  0.50269  1.0000 0.1514281583
C   C66       1.0  0.25578  0.25264  0.49731  1.0000 0.1514281583
C   C67       1.0  0.24422  0.74736  0.99731  1.0000 0.1514281583
C   C68       1.0  0.74422  0.75264  0.00269  1.0000 0.1514281583
C   C69       1.0  0.24422  0.75264  0.49731  1.0000 0.1514281583
C   C70       1.0  0.74422  0.74736  0.50269  1.0000 0.1514281583
C   C71       1.0  0.75578  0.25264  0.00269  1.0000 0.1514281583
C   C72       1.0  0.25578  0.24736  0.99731  1.0000 0.1514281583
C   C73       1.0  0.89506  0.27100  0.43820  1.0000 -0.0616975176
C   C74       1.0  0.39506  0.22900  0.56180  1.0000 -0.0616975176
C   C75       1.0  0.10494  0.77100  0.06180  1.0000 -0.0616975176
C   C76       1.0  0.60494  0.72900  0.93820  1.0000 -0.0616975176
C   C77       1.0  0.10494  0.72900  0.56180  1.0000 -0.0616975176
C   C78       1.0  0.60494  0.77100  0.43820  1.0000 -0.0616975176
C   C79       1.0  0.89506  0.22900  0.93820  1.0000 -0.0616975176
C   C80       1.0  0.39506  0.27100  0.06180  1.0000 -0.0616975176
C   C81       1.0  0.70160  0.96609  0.32355  1.0000 -0.0683979216
C   C82       1.0  0.20160  0.53391  0.67645  1.0000 -0.0683979216
C   C83       1.0  0.29840  0.46609  0.17645  1.0000 -0.0683979216
C   C84       1.0  0.79840  0.03391  0.82355  1.0000 -0.0683979216
C   C85       1.0  0.29840  0.03391  0.67645  1.0000 -0.0683979216
C   C86       1.0  0.79840  0.46609  0.32355  1.0000 -0.0683979216
C   C87       1.0  0.70160  0.53391  0.82355  1.0000 -0.0683979216
C   C88       1.0  0.20160  0.96609  0.17645  1.0000 -0.0683979216
C   C89       1.0  0.75250  0.01240  0.25075  1.0000 0.1332519584
C   C90       1.0  0.25250  0.48760  0.74925  1.0000 0.1332519584
C   C91       1.0  0.24750  0.51240  0.24925  1.0000 0.1332519584
C   C92       1.0  0.74750  0.98760  0.75075  1.0000 0.1332519584
C   C93       1.0  0.24750  0.98760  0.74925  1.0000 0.1332519584
C   C94       1.0  0.74750  0.51240  0.25075  1.0000 0.1332519584
C   C95       1.0  0.75250  0.48760  0.75075  1.0000 0.1332519584
C   C96       1.0  0.25250  0.01240  0.24925  1.0000 0.1332519584
N   N1        1.0  0.04541  0.06985  0.36557  1.0000 -0.2989794827
N   N2        1.0  0.54541  0.43015  0.63443  1.0000 -0.2989794827
N   N3        1.0  0.95459  0.56985  0.13443  1.0000 -0.2989794827
N   N4        1.0  0.45459  0.93015  0.86557  1.0000 -0.2989794827
N   N5        1.0  0.95459  0.93015  0.63443  1.0000 -0.2989794827
N   N6        1.0  0.45459  0.56985  0.36557  1.0000 -0.2989794827
N   N7        1.0  0.04541  0.43015  0.86557  1.0000 -0.2989794827
N   N8        1.0  0.54541  0.06985  0.13443  1.0000 -0.2989794827
N   N9        1.0  0.87872  0.23452  0.48074  1.0000 -0.2882359105
N   N10       1.0  0.37872  0.26548  0.51926  1.0000 -0.2882359105
N   N11       1.0  0.12128  0.73452  0.01926  1.0000 -0.2882359105
N   N12       1.0  0.62128  0.76548  0.98074  1.0000 -0.2882359105
N   N13       1.0  0.12128  0.76548  0.51926  1.0000 -0.2882359105
N   N14       1.0  0.62128  0.73452  0.48074  1.0000 -0.2882359105
N   N15       1.0  0.87872  0.26548  0.98074  1.0000 -0.2882359105
N   N16       1.0  0.37872  0.23452  0.01926  1.0000 -0.2882359105
N   N17       1.0  0.69225  0.28969  0.47777  1.0000 -0.2882359105
N   N18       1.0  0.19225  0.21031  0.52223  1.0000 -0.2882359105
N   N19       1.0  0.30775  0.78969  0.02223  1.0000 -0.2882359105
N   N20       1.0  0.80775  0.71031  0.97777  1.0000 -0.2882359105
N   N21       1.0  0.30775  0.71031  0.52223  1.0000 -0.2882359105
N   N22       1.0  0.80775  0.78969  0.47777  1.0000 -0.2882359105
N   N23       1.0  0.69225  0.21031  0.97777  1.0000 -0.2882359105
N   N24       1.0  0.19225  0.28969  0.02223  1.0000 -0.2882359105
N   N25       1.0  0.04719  0.93519  0.36964  1.0000 -0.2882359105
N   N26       1.0  0.54719  0.56481  0.63036  1.0000 -0.2882359105
N   N27       1.0  0.95281  0.43519  0.13036  1.0000 -0.2882359105
N   N28       1.0  0.45281  0.06481  0.86964  1.0000 -0.2882359105
N   N29       1.0  0.95281  0.06481  0.63036  1.0000 -0.2882359105
N   N30       1.0  0.45281  0.43519  0.36964  1.0000 -0.2882359105
N   N31       1.0  0.04719  0.56481  0.86964  1.0000 -0.2882359105
N   N32       1.0  0.54719  0.93519  0.13036  1.0000 -0.2882359105
N   N33       1.0  0.05136  0.13155  0.43342  1.0000 -0.2882359105
N   N34       1.0  0.55136  0.36845  0.56658  1.0000 -0.2882359105
N   N35       1.0  0.94864  0.63155  0.06658  1.0000 -0.2882359105
N   N36       1.0  0.44864  0.86845  0.93342  1.0000 -0.2882359105
N   N37       1.0  0.94864  0.86845  0.56658  1.0000 -0.2882359105
N   N38       1.0  0.44864  0.63155  0.43342  1.0000 -0.2882359105
N   N39       1.0  0.05136  0.36845  0.93342  1.0000 -0.2882359105
N   N40       1.0  0.55136  0.13155  0.06658  1.0000 -0.2882359105
N   N41       1.0  0.04938  0.87051  0.43524  1.0000 -0.2882359105
N   N42       1.0  0.54938  0.62949  0.56476  1.0000 -0.2882359105
N   N43       1.0  0.95062  0.37051  0.06476  1.0000 -0.2882359105
N   N44       1.0  0.45062  0.12949  0.93524  1.0000 -0.2882359105
N   N45       1.0  0.95062  0.12949  0.56476  1.0000 -0.2882359105
N   N46       1.0  0.45062  0.37051  0.43524  1.0000 -0.2882359105
N   N47       1.0  0.04938  0.62949  0.93524  1.0000 -0.2882359105
N   N48       1.0  0.54938  0.87051  0.06476  1.0000 -0.2882359105
N   N49       1.0  0.62145  0.99575  0.24313  1.0000 -0.2882359105
N   N50       1.0  0.12145  0.50425  0.75687  1.0000 -0.2882359105
N   N51       1.0  0.37855  0.49575  0.25687  1.0000 -0.2882359105
N   N52       1.0  0.87855  0.00425  0.74313  1.0000 -0.2882359105
N   N53       1.0  0.37855  0.00425  0.75687  1.0000 -0.2882359105
N   N54       1.0  0.87855  0.49575  0.24313  1.0000 -0.2882359105
N   N55       1.0  0.62145  0.50425  0.74313  1.0000 -0.2882359105
N   N56       1.0  0.12145  0.99575  0.25687  1.0000 -0.2882359105
N   N57       1.0  0.80598  0.99558  0.29857  1.0000 -0.2882359105
N   N58       1.0  0.30598  0.50442  0.70143  1.0000 -0.2882359105
N   N59       1.0  0.19402  0.49558  0.20143  1.0000 -0.2882359105
N   N60       1.0  0.69402  0.00442  0.79857  1.0000 -0.2882359105
N   N61       1.0  0.19402  0.00442  0.70143  1.0000 -0.2882359105
N   N62       1.0  0.69402  0.49558  0.29857  1.0000 -0.2882359105
N   N63       1.0  0.80598  0.50442  0.79857  1.0000 -0.2882359105
N   N64       1.0  0.30598  0.99558  0.20143  1.0000 -0.2882359105
