# DDEC6 charges by PACMAN v1.1 (https://github.com/mtap-research/PACMAN-charge/)
data_2024[Zn][crb]3[FSR]25
_chemical_formula_sum              "Zn16 H96 C96 N64"
_cell_length_a       9.63356
_cell_length_b       24.0923
_cell_length_c       24.4097
_cell_angle_alpha    90
_cell_angle_beta     90
_cell_angle_gamma    90

_symmetry_space_group_name_H-M    "P 1"
_symmetry_Int_Tables_number       1

loop_
  _symmetry_equiv_pos_as_xyz
  'x, y, z'

loop_
  _atom_site_type_symbol
  _atom_site_label
  _atom_site_symmetry_multiplicity
  _atom_site_fract_x
  _atom_site_fract_y
  _atom_site_fract_z
  _atom_site_occupancy
  _atom_site_charge
Zn  Zn1       1.0  0.01228  0.17442  0.50141  1.0000 0.6216088629
Zn  Zn2       1.0  0.51228  0.32558  0.49859  1.0000 0.6216088629
Zn  Zn3       1.0  0.98772  0.67442  0.99859  1.0000 0.6216088629
Zn  Zn4       1.0  0.48772  0.82558  0.00141  1.0000 0.6216088629
Zn  Zn5       1.0  0.98772  0.82558  0.49859  1.0000 0.6216088629
Zn  Zn6       1.0  0.48772  0.67442  0.50141  1.0000 0.6216088629
Zn  Zn7       1.0  0.01228  0.32558  0.00141  1.0000 0.6216088629
Zn  Zn8       1.0  0.51228  0.17442  0.99859  1.0000 0.6216088629
Zn  Zn9       1.0  0.00268  0.00175  0.32394  1.0000 0.6216088629
Zn  Zn10      1.0  0.50268  0.49825  0.67606  1.0000 0.6216088629
Zn  Zn11      1.0  0.99732  0.50175  0.17606  1.0000 0.6216088629
Zn  Zn12      1.0  0.49732  0.99825  0.82394  1.0000 0.6216088629
Zn  Zn13      1.0  0.99732  0.99825  0.67606  1.0000 0.6216088629
Zn  Zn14      1.0  0.49732  0.50175  0.32394  1.0000 0.6216088629
Zn  Zn15      1.0  0.00268  0.49825  0.82394  1.0000 0.6216088629
Zn  Zn16      1.0  0.50268  0.00175  0.17606  1.0000 0.6216088629
H   H1        1.0  0.75590  0.33790  0.40840  1.0000 0.098944335
H   H2        1.0  0.25590  0.16210  0.59160  1.0000 0.098944335
H   H3        1.0  0.24410  0.83790  0.09160  1.0000 0.098944335
H   H4        1.0  0.74410  0.66210  0.90840  1.0000 0.098944335
H   H5        1.0  0.24410  0.66210  0.59160  1.0000 0.098944335
H   H6        1.0  0.74410  0.83790  0.40840  1.0000 0.098944335
H   H7        1.0  0.75590  0.16210  0.90840  1.0000 0.098944335
H   H8        1.0  0.25590  0.33790  0.09160  1.0000 0.098944335
H   H9        1.0  0.48860  0.94580  0.29430  1.0000 0.098944335
H   H10       1.0  0.98860  0.55420  0.70570  1.0000 0.098944335
H   H11       1.0  0.51140  0.44580  0.20570  1.0000 0.098944335
H   H12       1.0  0.01140  0.05420  0.79430  1.0000 0.098944335
H   H13       1.0  0.51140  0.05420  0.70570  1.0000 0.098944335
H   H14       1.0  0.01140  0.44580  0.29430  1.0000 0.098944335
H   H15       1.0  0.48860  0.55420  0.79430  1.0000 0.098944335
H   H16       1.0  0.98860  0.94580  0.20570  1.0000 0.098944335
H   H17       1.0  0.96130  0.05160  0.44480  1.0000 0.0715735464
H   H18       1.0  0.46130  0.44840  0.55520  1.0000 0.0715735464
H   H19       1.0  0.03870  0.55160  0.05520  1.0000 0.0715735464
H   H20       1.0  0.53870  0.94840  0.94480  1.0000 0.0715735464
H   H21       1.0  0.03870  0.94840  0.55520  1.0000 0.0715735464
H   H22       1.0  0.53870  0.55160  0.44480  1.0000 0.0715735464
H   H23       1.0  0.96130  0.44840  0.94480  1.0000 0.0715735464
H   H24       1.0  0.46130  0.05160  0.05520  1.0000 0.0715735464
H   H25       1.0  0.20600  0.81880  0.39790  1.0000 0.098944335
H   H26       1.0  0.70600  0.68120  0.60210  1.0000 0.098944335
H   H27       1.0  0.79400  0.31880  0.10210  1.0000 0.098944335
H   H28       1.0  0.29400  0.18120  0.89790  1.0000 0.098944335
H   H29       1.0  0.79400  0.18120  0.60210  1.0000 0.098944335
H   H30       1.0  0.29400  0.31880  0.39790  1.0000 0.098944335
H   H31       1.0  0.20600  0.68120  0.89790  1.0000 0.098944335
H   H32       1.0  0.70600  0.81880  0.10210  1.0000 0.098944335
H   H33       1.0  0.14100  0.12170  0.30390  1.0000 0.098944335
H   H34       1.0  0.64100  0.37830  0.69610  1.0000 0.098944335
H   H35       1.0  0.85900  0.62170  0.19610  1.0000 0.098944335
H   H36       1.0  0.35900  0.87830  0.80390  1.0000 0.098944335
H   H37       1.0  0.85900  0.87830  0.69610  1.0000 0.098944335
H   H38       1.0  0.35900  0.62170  0.30390  1.0000 0.098944335
H   H39       1.0  0.14100  0.37830  0.80390  1.0000 0.098944335
H   H40       1.0  0.64100  0.12170  0.19610  1.0000 0.098944335
H   H41       1.0  0.14700  0.19750  0.38970  1.0000 0.098944335
H   H42       1.0  0.64700  0.30250  0.61030  1.0000 0.098944335
H   H43       1.0  0.85300  0.69750  0.11030  1.0000 0.098944335
H   H44       1.0  0.35300  0.80250  0.88970  1.0000 0.098944335
H   H45       1.0  0.85300  0.80250  0.61030  1.0000 0.098944335
H   H46       1.0  0.35300  0.69750  0.38970  1.0000 0.098944335
H   H47       1.0  0.14700  0.30250  0.88970  1.0000 0.098944335
H   H48       1.0  0.64700  0.19750  0.11030  1.0000 0.098944335
H   H49       1.0  0.91880  0.94230  0.44030  1.0000 0.0715735464
H   H50       1.0  0.41880  0.55770  0.55970  1.0000 0.0715735464
H   H51       1.0  0.08120  0.44230  0.05970  1.0000 0.0715735464
H   H52       1.0  0.58120  0.05770  0.94030  1.0000 0.0715735464
H   H53       1.0  0.08120  0.05770  0.55970  1.0000 0.0715735464
H   H54       1.0  0.58120  0.44230  0.44030  1.0000 0.0715735464
H   H55       1.0  0.91880  0.55770  0.94030  1.0000 0.0715735464
H   H56       1.0  0.41880  0.94230  0.05970  1.0000 0.0715735464
H   H57       1.0  0.19800  0.89690  0.31760  1.0000 0.10635216
H   H58       1.0  0.69800  0.60310  0.68240  1.0000 0.10635216
H   H59       1.0  0.80200  0.39690  0.18240  1.0000 0.10635216
H   H60       1.0  0.30200  0.10310  0.81760  1.0000 0.10635216
H   H61       1.0  0.80200  0.10310  0.68240  1.0000 0.10635216
H   H62       1.0  0.30200  0.39690  0.31760  1.0000 0.10635216
H   H63       1.0  0.19800  0.60310  0.81760  1.0000 0.10635216
H   H64       1.0  0.69800  0.89690  0.18240  1.0000 0.10635216
H   H65       1.0  0.71290  0.22520  0.53890  1.0000 0.0429989381
H   H66       1.0  0.21290  0.27480  0.46110  1.0000 0.0429989381
H   H67       1.0  0.28710  0.72520  0.96110  1.0000 0.0429989381
H   H68       1.0  0.78710  0.77480  0.03890  1.0000 0.0429989381
H   H69       1.0  0.28710  0.77480  0.46110  1.0000 0.0429989381
H   H70       1.0  0.78710  0.72520  0.53890  1.0000 0.0429989381
H   H71       1.0  0.71290  0.27480  0.03890  1.0000 0.0429989381
H   H72       1.0  0.21290  0.22520  0.96110  1.0000 0.0429989381
H   H73       1.0  0.98650  0.27110  0.41140  1.0000 0.0886947236
H   H74       1.0  0.48650  0.22890  0.58860  1.0000 0.0886947236
H   H75       1.0  0.01350  0.77110  0.08860  1.0000 0.0886947236
H   H76       1.0  0.51350  0.72890  0.91140  1.0000 0.0886947236
H   H77       1.0  0.01350  0.72890  0.58860  1.0000 0.0886947236
H   H78       1.0  0.51350  0.77110  0.41140  1.0000 0.0886947236
H   H79       1.0  0.98650  0.22890  0.91140  1.0000 0.0886947236
H   H80       1.0  0.48650  0.27110  0.08860  1.0000 0.0886947236
H   H81       1.0  0.71680  0.94880  0.36360  1.0000 0.098944335
H   H82       1.0  0.21680  0.55120  0.63640  1.0000 0.098944335
H   H83       1.0  0.28320  0.44880  0.13640  1.0000 0.098944335
H   H84       1.0  0.78320  0.05120  0.86360  1.0000 0.098944335
H   H85       1.0  0.28320  0.05120  0.63640  1.0000 0.098944335
H   H86       1.0  0.78320  0.44880  0.36360  1.0000 0.098944335
H   H87       1.0  0.71680  0.55120  0.86360  1.0000 0.098944335
H   H88       1.0  0.21680  0.94880  0.13640  1.0000 0.098944335
H   H89       1.0  0.80790  0.03830  0.22140  1.0000 0.0759358501
H   H90       1.0  0.30790  0.46170  0.77860  1.0000 0.0759358501
H   H91       1.0  0.19210  0.53830  0.27860  1.0000 0.0759358501
H   H92       1.0  0.69210  0.96170  0.72140  1.0000 0.0759358501
H   H93       1.0  0.19210  0.96170  0.77860  1.0000 0.0759358501
H   H94       1.0  0.69210  0.53830  0.22140  1.0000 0.0759358501
H   H95       1.0  0.80790  0.46170  0.72140  1.0000 0.0759358501
H   H96       1.0  0.30790  0.03830  0.27860  1.0000 0.0759358501
C   C1        1.0  0.78045  0.30486  0.43650  1.0000 -0.0604149069
C   C2        1.0  0.28045  0.19514  0.56350  1.0000 -0.0604149069
C   C3        1.0  0.21955  0.80486  0.06350  1.0000 -0.0604149069
C   C4        1.0  0.71955  0.69514  0.93650  1.0000 -0.0604149069
C   C5        1.0  0.21955  0.69514  0.56350  1.0000 -0.0604149069
C   C6        1.0  0.71955  0.80486  0.43650  1.0000 -0.0604149069
C   C7        1.0  0.78045  0.19514  0.93650  1.0000 -0.0604149069
C   C8        1.0  0.28045  0.30486  0.06350  1.0000 -0.0604149069
C   C9        1.0  0.58837  0.96599  0.28955  1.0000 -0.0678284911
C   C10       1.0  0.08837  0.53401  0.71045  1.0000 -0.0678284911
C   C11       1.0  0.41163  0.46599  0.21045  1.0000 -0.0678284911
C   C12       1.0  0.91163  0.03401  0.78955  1.0000 -0.0678284911
C   C13       1.0  0.41163  0.03401  0.71045  1.0000 -0.0678284911
C   C14       1.0  0.91163  0.46599  0.28955  1.0000 -0.0678284911
C   C15       1.0  0.58837  0.53401  0.78955  1.0000 -0.0678284911
C   C16       1.0  0.08837  0.96599  0.21045  1.0000 -0.0678284911
C   C17       1.0  0.01488  0.08037  0.41804  1.0000 0.1355986802
C   C18       1.0  0.51488  0.41963  0.58196  1.0000 0.1355986802
C   C19       1.0  0.98512  0.58037  0.08196  1.0000 0.1355986802
C   C20       1.0  0.48512  0.91963  0.91804  1.0000 0.1355986802
C   C21       1.0  0.98512  0.91963  0.58196  1.0000 0.1355986802
C   C22       1.0  0.48512  0.58037  0.41804  1.0000 0.1355986802
C   C23       1.0  0.01488  0.41963  0.91804  1.0000 0.1355986802
C   C24       1.0  0.51488  0.08037  0.08196  1.0000 0.1355986802
C   C25       1.0  0.14338  0.85555  0.39557  1.0000 -0.0678284911
C   C26       1.0  0.64338  0.64445  0.60443  1.0000 -0.0678284911
C   C27       1.0  0.85662  0.35555  0.10443  1.0000 -0.0678284911
C   C28       1.0  0.35662  0.14445  0.89557  1.0000 -0.0678284911
C   C29       1.0  0.85662  0.14445  0.60443  1.0000 -0.0678284911
C   C30       1.0  0.35662  0.35555  0.39557  1.0000 -0.0678284911
C   C31       1.0  0.14338  0.64445  0.89557  1.0000 -0.0678284911
C   C32       1.0  0.64338  0.85555  0.10443  1.0000 -0.0678284911
C   C33       1.0  0.10548  0.11767  0.34602  1.0000 -0.0604149069
C   C34       1.0  0.60548  0.38233  0.65398  1.0000 -0.0604149069
C   C35       1.0  0.89452  0.61767  0.15398  1.0000 -0.0604149069
C   C36       1.0  0.39452  0.88233  0.84602  1.0000 -0.0604149069
C   C37       1.0  0.89452  0.88233  0.65398  1.0000 -0.0604149069
C   C38       1.0  0.39452  0.61767  0.34602  1.0000 -0.0604149069
C   C39       1.0  0.10548  0.38233  0.84602  1.0000 -0.0604149069
C   C40       1.0  0.60548  0.11767  0.15398  1.0000 -0.0604149069
C   C41       1.0  0.10929  0.15538  0.38789  1.0000 -0.0604149069
C   C42       1.0  0.60929  0.34462  0.61211  1.0000 -0.0604149069
C   C43       1.0  0.89071  0.65538  0.11211  1.0000 -0.0604149069
C   C44       1.0  0.39071  0.84462  0.88789  1.0000 -0.0604149069
C   C45       1.0  0.89071  0.84462  0.61211  1.0000 -0.0604149069
C   C46       1.0  0.39071  0.65538  0.38789  1.0000 -0.0604149069
C   C47       1.0  0.10929  0.34462  0.88789  1.0000 -0.0604149069
C   C48       1.0  0.60929  0.15538  0.11211  1.0000 -0.0604149069
C   C49       1.0  0.99535  0.91860  0.41786  1.0000 0.1225068926
C   C50       1.0  0.49535  0.58140  0.58214  1.0000 0.1225068926
C   C51       1.0  0.00465  0.41860  0.08214  1.0000 0.1225068926
C   C52       1.0  0.50465  0.08140  0.91786  1.0000 0.1225068926
C   C53       1.0  0.00465  0.08140  0.58214  1.0000 0.1225068926
C   C54       1.0  0.50465  0.41860  0.41786  1.0000 0.1225068926
C   C55       1.0  0.99535  0.58140  0.91786  1.0000 0.1225068926
C   C56       1.0  0.49535  0.91860  0.08214  1.0000 0.1225068926
C   C57       1.0  0.14198  0.89520  0.35531  1.0000 -0.0604149069
C   C58       1.0  0.64198  0.60480  0.64469  1.0000 -0.0604149069
C   C59       1.0  0.85802  0.39520  0.14469  1.0000 -0.0604149069
C   C60       1.0  0.35802  0.10480  0.85531  1.0000 -0.0604149069
C   C61       1.0  0.85802  0.10480  0.64469  1.0000 -0.0604149069
C   C62       1.0  0.35802  0.39520  0.35531  1.0000 -0.0604149069
C   C63       1.0  0.14198  0.60480  0.85531  1.0000 -0.0604149069
C   C64       1.0  0.64198  0.89520  0.14469  1.0000 -0.0604149069
C   C65       1.0  0.75576  0.24734  0.50271  1.0000 0.1534799954
C   C66       1.0  0.25576  0.25266  0.49729  1.0000 0.1534799954
C   C67       1.0  0.24424  0.74734  0.99729  1.0000 0.1534799954
C   C68       1.0  0.74424  0.75266  0.00271  1.0000 0.1534799954
C   C69       1.0  0.24424  0.75266  0.49729  1.0000 0.1534799954
C   C70       1.0  0.74424  0.74734  0.50271  1.0000 0.1534799954
C   C71       1.0  0.75576  0.25266  0.00271  1.0000 0.1534799954
C   C72       1.0  0.25576  0.24734  0.99729  1.0000 0.1534799954
C   C73       1.0  0.89509  0.27100  0.43818  1.0000 -0.0604149069
C   C74       1.0  0.39509  0.22900  0.56182  1.0000 -0.0604149069
C   C75       1.0  0.10491  0.77100  0.06182  1.0000 -0.0604149069
C   C76       1.0  0.60491  0.72900  0.93818  1.0000 -0.0604149069
C   C77       1.0  0.10491  0.72900  0.56182  1.0000 -0.0604149069
C   C78       1.0  0.60491  0.77100  0.43818  1.0000 -0.0604149069
C   C79       1.0  0.89509  0.22900  0.93818  1.0000 -0.0604149069
C   C80       1.0  0.39509  0.27100  0.06182  1.0000 -0.0604149069
C   C81       1.0  0.70159  0.96608  0.32357  1.0000 -0.0678284911
C   C82       1.0  0.20159  0.53392  0.67643  1.0000 -0.0678284911
C   C83       1.0  0.29841  0.46608  0.17643  1.0000 -0.0678284911
C   C84       1.0  0.79841  0.03392  0.82357  1.0000 -0.0678284911
C   C85       1.0  0.29841  0.03392  0.67643  1.0000 -0.0678284911
C   C86       1.0  0.79841  0.46608  0.32357  1.0000 -0.0678284911
C   C87       1.0  0.70159  0.53392  0.82357  1.0000 -0.0678284911
C   C88       1.0  0.20159  0.96608  0.17643  1.0000 -0.0678284911
C   C89       1.0  0.75253  0.01240  0.25074  1.0000 0.1355986802
C   C90       1.0  0.25253  0.48760  0.74926  1.0000 0.1355986802
C   C91       1.0  0.24747  0.51240  0.24926  1.0000 0.1355986802
C   C92       1.0  0.74747  0.98760  0.75074  1.0000 0.1355986802
C   C93       1.0  0.24747  0.98760  0.74926  1.0000 0.1355986802
C   C94       1.0  0.74747  0.51240  0.25074  1.0000 0.1355986802
C   C95       1.0  0.75253  0.48760  0.75074  1.0000 0.1355986802
C   C96       1.0  0.25253  0.01240  0.24926  1.0000 0.1355986802
N   N1        1.0  0.04540  0.06983  0.36556  1.0000 -0.2982535714
N   N2        1.0  0.54540  0.43017  0.63444  1.0000 -0.2982535714
N   N3        1.0  0.95460  0.56983  0.13444  1.0000 -0.2982535714
N   N4        1.0  0.45460  0.93017  0.86556  1.0000 -0.2982535714
N   N5        1.0  0.95460  0.93017  0.63444  1.0000 -0.2982535714
N   N6        1.0  0.45460  0.56983  0.36556  1.0000 -0.2982535714
N   N7        1.0  0.04540  0.43017  0.86556  1.0000 -0.2982535714
N   N8        1.0  0.54540  0.06983  0.13444  1.0000 -0.2982535714
N   N9        1.0  0.87876  0.23451  0.48074  1.0000 -0.289854933
N   N10       1.0  0.37876  0.26549  0.51926  1.0000 -0.289854933
N   N11       1.0  0.12124  0.73451  0.01926  1.0000 -0.289854933
N   N12       1.0  0.62124  0.76549  0.98074  1.0000 -0.289854933
N   N13       1.0  0.12124  0.76549  0.51926  1.0000 -0.289854933
N   N14       1.0  0.62124  0.73451  0.48074  1.0000 -0.289854933
N   N15       1.0  0.87876  0.26549  0.98074  1.0000 -0.289854933
N   N16       1.0  0.37876  0.23451  0.01926  1.0000 -0.289854933
N   N17       1.0  0.69225  0.28969  0.47777  1.0000 -0.289854933
N   N18       1.0  0.19225  0.21031  0.52223  1.0000 -0.289854933
N   N19       1.0  0.30775  0.78969  0.02223  1.0000 -0.289854933
N   N20       1.0  0.80775  0.71031  0.97777  1.0000 -0.289854933
N   N21       1.0  0.30775  0.71031  0.52223  1.0000 -0.289854933
N   N22       1.0  0.80775  0.78969  0.47777  1.0000 -0.289854933
N   N23       1.0  0.69225  0.21031  0.97777  1.0000 -0.289854933
N   N24       1.0  0.19225  0.28969  0.02223  1.0000 -0.289854933
N   N25       1.0  0.04719  0.93520  0.36963  1.0000 -0.289854933
N   N26       1.0  0.54719  0.56480  0.63037  1.0000 -0.289854933
N   N27       1.0  0.95281  0.43520  0.13037  1.0000 -0.289854933
N   N28       1.0  0.45281  0.06480  0.86963  1.0000 -0.289854933
N   N29       1.0  0.95281  0.06480  0.63037  1.0000 -0.289854933
N   N30       1.0  0.45281  0.43520  0.36963  1.0000 -0.289854933
N   N31       1.0  0.04719  0.56480  0.86963  1.0000 -0.289854933
N   N32       1.0  0.54719  0.93520  0.13037  1.0000 -0.289854933
N   N33       1.0  0.05135  0.13156  0.43344  1.0000 -0.289854933
N   N34       1.0  0.55135  0.36844  0.56656  1.0000 -0.289854933
N   N35       1.0  0.94865  0.63156  0.06656  1.0000 -0.289854933
N   N36       1.0  0.44865  0.86844  0.93344  1.0000 -0.289854933
N   N37       1.0  0.94865  0.86844  0.56656  1.0000 -0.289854933
N   N38       1.0  0.44865  0.63156  0.43344  1.0000 -0.289854933
N   N39       1.0  0.05135  0.36844  0.93344  1.0000 -0.289854933
N   N40       1.0  0.55135  0.13156  0.06656  1.0000 -0.289854933
N   N41       1.0  0.04939  0.87051  0.43523  1.0000 -0.289854933
N   N42       1.0  0.54939  0.62949  0.56477  1.0000 -0.289854933
N   N43       1.0  0.95061  0.37051  0.06477  1.0000 -0.289854933
N   N44       1.0  0.45061  0.12949  0.93523  1.0000 -0.289854933
N   N45       1.0  0.95061  0.12949  0.56477  1.0000 -0.289854933
N   N46       1.0  0.45061  0.37051  0.43523  1.0000 -0.289854933
N   N47       1.0  0.04939  0.62949  0.93523  1.0000 -0.289854933
N   N48       1.0  0.54939  0.87051  0.06477  1.0000 -0.289854933
N   N49       1.0  0.62142  0.99575  0.24312  1.0000 -0.2982535714
N   N50       1.0  0.12142  0.50425  0.75688  1.0000 -0.2982535714
N   N51       1.0  0.37858  0.49575  0.25688  1.0000 -0.2982535714
N   N52       1.0  0.87858  0.00425  0.74312  1.0000 -0.2982535714
N   N53       1.0  0.37858  0.00425  0.75688  1.0000 -0.2982535714
N   N54       1.0  0.87858  0.49575  0.24312  1.0000 -0.2982535714
N   N55       1.0  0.62142  0.50425  0.74312  1.0000 -0.2982535714
N   N56       1.0  0.12142  0.99575  0.25688  1.0000 -0.2982535714
N   N57       1.0  0.80602  0.99558  0.29857  1.0000 -0.289854933
N   N58       1.0  0.30602  0.50442  0.70143  1.0000 -0.289854933
N   N59       1.0  0.19398  0.49558  0.20143  1.0000 -0.289854933
N   N60       1.0  0.69398  0.00442  0.79857  1.0000 -0.289854933
N   N61       1.0  0.19398  0.00442  0.70143  1.0000 -0.289854933
N   N62       1.0  0.69398  0.49558  0.29857  1.0000 -0.289854933
N   N63       1.0  0.80602  0.50442  0.79857  1.0000 -0.289854933
N   N64       1.0  0.30602  0.99558  0.20143  1.0000 -0.289854933
